<?xml version="1.0" encoding="UTF-8"?>

<!-- generated on Wed May  5 04:57:51 2021 by Eclipse SUMO duarouter Version 1.9.0
<configuration xmlns:xsi="http://www.w3.org/2001/XMLSchema-instance" xsi:noNamespaceSchemaLocation="http://sumo.dlr.de/xsd/duarouterConfiguration.xsd">

    <input>
        <net-file value="./sumo_files/monash_intersection/monash_intersection.net.xml"/>
        <additional-files value="./sumo_files/monash_intersection/monash_intersection.add.xml"/>
        <route-files value="./sumo_files/monash_intersection/trips.trips.xml"/>
    </input>

    <output>
        <output-file value="./sumo_files/monash_intersection/monash_intersection8.rou.xml"/>
        <vtype-output value="vtypeout.xml"/>
        <alternatives-output value="./sumo_files/monash_intersection/monash_intersection8.rou.alt.xml"/>
    </output>

    <time>
        <begin value="2800.0"/>
        <end value="3200.0"/>
    </time>

    <report>
        <no-warnings value="true"/>
        <ignore-errors value="true"/>
        <no-step-log value="true"/>
    </report>

</configuration>
-->

<routes xmlns:xsi="http://www.w3.org/2001/XMLSchema-instance" xsi:noNamespaceSchemaLocation="http://sumo.dlr.de/xsd/routes_file.xsd">
    <vehicle id="a8a3" type="car" depart="2800.60" departLane="best" departPos="random" departSpeed="max">
        <route edges="-l3.2"/>
    </vehicle>
    <vehicle id="a8a7" type="car" depart="2801.40" departLane="best" departPos="random" departSpeed="max">
        <route edges="l4.1 l4.2 l3.3"/>
    </vehicle>
    <vehicle id="a8a9" type="car" depart="2801.80" departLane="best" departPos="random" departSpeed="max">
        <route edges="-l1.2 -l3.1 -l3.2 -l3.3 -l4"/>
    </vehicle>
    <vehicle id="a8a10" type="car" depart="2802.00" departLane="best" departPos="random" departSpeed="max">
        <route edges="l4.2 l3.3 l3.2 l3.1 -l2"/>
    </vehicle>
    <vehicle id="a8a11" type="car" depart="2802.20" departLane="best" departPos="random" departSpeed="max">
        <route edges="l4.1 l4.2 l3.3 l3.2 l3.1"/>
    </vehicle>
    <vehicle id="a8a12" type="car" depart="2802.40" departLane="best" departPos="random" departSpeed="max">
        <route edges="l2.1 l2.2 -l3.1 -l3.2 -l3.3"/>
    </vehicle>
    <vehicle id="a8a14" type="car" depart="2802.80" departLane="best" departPos="random" departSpeed="max">
        <route edges="-l1.1 -l1.2"/>
    </vehicle>
    <vehicle id="a8a15" type="car" depart="2803.00" departLane="best" departPos="random" departSpeed="max">
        <route edges="-l3.2 -l3.3"/>
    </vehicle>
    <vehicle id="a8a16" type="car" depart="2803.20" departLane="best" departPos="random" departSpeed="max">
        <route edges="l3.1"/>
    </vehicle>
    <vehicle id="a8a25" type="emergency" depart="2805.00" departLane="best" departPos="random" departSpeed="max">
        <route edges="l4.1 l4.2 l3.3"/>
    </vehicle>
    <vehicle id="a8a29" type="car" depart="2805.80" departLane="best" departPos="random" departSpeed="max">
        <route edges="-l3.1"/>
    </vehicle>
    <vehicle id="a8a31" type="car" depart="2806.20" departLane="best" departPos="random" departSpeed="max">
        <route edges="-l1.1 -l1.2 -l3.1"/>
    </vehicle>
    <vehicle id="a8a41" type="motor" depart="2808.20" departLane="best" departPos="random" departSpeed="max">
        <route edges="l5.1 l5.2 l3.3 l3.2 l3.1"/>
    </vehicle>
    <vehicle id="a8a42" type="car" depart="2808.40" departLane="best" departPos="random" departSpeed="max">
        <route edges="-l1.1 -l1.2"/>
    </vehicle>
    <vehicle id="a8a44" type="car" depart="2808.80" departLane="best" departPos="random" departSpeed="max">
        <route edges="l2.2 -l3.1 -l3.2 -l3.3 -l4"/>
    </vehicle>
    <vehicle id="a8a46" type="car" depart="2809.20" departLane="best" departPos="random" departSpeed="max">
        <route edges="l4.1 l4.2 l3.3 l3.2"/>
    </vehicle>
    <vehicle id="a8a48" type="car" depart="2809.60" departLane="best" departPos="random" departSpeed="max">
        <route edges="l3.1"/>
    </vehicle>
    <vehicle id="a8a50" type="car" depart="2810.00" departLane="best" departPos="random" departSpeed="max">
        <route edges="l3.3 l3.2 l3.1 -l2"/>
    </vehicle>
    <vehicle id="a8a54" type="motor" depart="2810.80" departLane="best" departPos="random" departSpeed="max">
        <route edges="l4.1 l4.2 -l5"/>
    </vehicle>
    <vehicle id="a8a55" type="car" depart="2811.00" departLane="best" departPos="random" departSpeed="max">
        <route edges="l3.2"/>
    </vehicle>
    <vehicle id="a8a59" type="motor" depart="2811.80" departLane="best" departPos="random" departSpeed="max">
        <route edges="-l3.2 -l3.3"/>
    </vehicle>
    <vehicle id="a8a61" type="car" depart="2812.20" departLane="best" departPos="random" departSpeed="max">
        <route edges="l5.1 l5.2 l3.3 l3.2 l3.1"/>
    </vehicle>
    <vehicle id="a8a62" type="car" depart="2812.40" departLane="best" departPos="random" departSpeed="max">
        <route edges="-l1.2 -l3.1 -l3.2 -l3.3"/>
    </vehicle>
    <vehicle id="a8a66" type="motor" depart="2813.20" departLane="best" departPos="random" departSpeed="max">
        <route edges="l4.2"/>
    </vehicle>
    <vehicle id="a8a73" type="car" depart="2814.60" departLane="best" departPos="random" departSpeed="max">
        <route edges="l5.1 l5.2 l3.3 l3.2 l3.1"/>
    </vehicle>
    <vehicle id="a8a74" type="car" depart="2814.80" departLane="best" departPos="random" departSpeed="max">
        <route edges="l2.2 -l3.1 -l3.2"/>
    </vehicle>
    <vehicle id="a8a75" type="car" depart="2815.00" departLane="best" departPos="random" departSpeed="max">
        <route edges="l4.1 l4.2 l3.3 l3.2"/>
    </vehicle>
    <vehicle id="a8a76" type="car" depart="2815.20" departLane="best" departPos="random" departSpeed="max">
        <route edges="l3.3"/>
    </vehicle>
    <vehicle id="a8a77" type="car" depart="2815.40" departLane="best" departPos="random" departSpeed="max">
        <route edges="-l1.1 -l1.2 -l3.1"/>
    </vehicle>
    <vehicle id="a8a82" type="car" depart="2816.40" departLane="best" departPos="random" departSpeed="max">
        <route edges="-l3.1"/>
    </vehicle>
    <vehicle id="a8a83" type="car" depart="2816.60" departLane="best" departPos="random" departSpeed="max">
        <route edges="-l1.1 -l1.2 -l3.1"/>
    </vehicle>
    <vehicle id="a8a85" type="car" depart="2817.00" departLane="best" departPos="random" departSpeed="max">
        <route edges="l3.2 l3.1 l1"/>
    </vehicle>
    <vehicle id="a8a86" type="car" depart="2817.20" departLane="best" departPos="random" departSpeed="max">
        <route edges="-l1.2 -l3.1 -l3.2 -l3.3 -l5"/>
    </vehicle>
    <vehicle id="a8a89" type="car" depart="2817.80" departLane="best" departPos="random" departSpeed="max">
        <route edges="l3.3 l3.2 l3.1 -l2"/>
    </vehicle>
    <vehicle id="a8a93" type="car" depart="2818.60" departLane="best" departPos="random" departSpeed="max">
        <route edges="l4.2 l3.3 l3.2"/>
    </vehicle>
    <vehicle id="a8a98" type="car" depart="2819.60" departLane="best" departPos="random" departSpeed="max">
        <route edges="-l3.1 -l3.2 -l3.3 -l5"/>
    </vehicle>
    <vehicle id="a8a101" type="car" depart="2820.20" departLane="best" departPos="random" departSpeed="max">
        <route edges="l3.1 -l2"/>
    </vehicle>
    <vehicle id="a8a106" type="car" depart="2821.20" departLane="best" departPos="random" departSpeed="max">
        <route edges="-l1.1 -l1.2 -l3.1 -l3.2 -l3.3 -l5"/>
    </vehicle>
    <vehicle id="a8a110" type="car" depart="2822.00" departLane="best" departPos="random" departSpeed="max">
        <route edges="-l3.3 -l4"/>
    </vehicle>
    <vehicle id="a8a114" type="car" depart="2822.80" departLane="best" departPos="random" departSpeed="max">
        <route edges="-l1.2 -l3.1 -l3.2 -l3.3"/>
    </vehicle>
    <vehicle id="a8a115" type="car" depart="2823.00" departLane="best" departPos="random" departSpeed="max">
        <route edges="-l3.1 -l3.2 -l3.3 -l4"/>
    </vehicle>
    <vehicle id="a8a116" type="car" depart="2823.20" departLane="best" departPos="random" departSpeed="max">
        <route edges="l2.1 l2.2 -l3.1 -l3.2 -l3.3 -l4"/>
    </vehicle>
    <vehicle id="a8a120" type="car" depart="2824.00" departLane="best" departPos="random" departSpeed="max">
        <route edges="-l1.2 -l2"/>
    </vehicle>
    <vehicle id="a8a121" type="car" depart="2824.20" departLane="best" departPos="random" departSpeed="max">
        <route edges="-l1.2 -l3.1 -l3.2"/>
    </vehicle>
    <vehicle id="a8a123" type="car" depart="2824.60" departLane="best" departPos="random" departSpeed="max">
        <route edges="-l1.2 -l3.1 -l3.2 -l3.3"/>
    </vehicle>
    <vehicle id="a8a124" type="motor" depart="2824.80" departLane="best" departPos="random" departSpeed="max">
        <route edges="-l3.3 -l4"/>
    </vehicle>
    <vehicle id="a8a127" type="motor" depart="2825.40" departLane="best" departPos="random" departSpeed="max">
        <route edges="l3.3 l3.2 l3.1"/>
    </vehicle>
    <vehicle id="a8a132" type="car" depart="2826.40" departLane="best" departPos="random" departSpeed="max">
        <route edges="-l3.3"/>
    </vehicle>
    <vehicle id="a8a134" type="car" depart="2826.80" departLane="best" departPos="random" departSpeed="max">
        <route edges="-l3.3"/>
    </vehicle>
    <vehicle id="a8a135" type="car" depart="2827.00" departLane="best" departPos="random" departSpeed="max">
        <route edges="l3.3 l3.2 l3.1"/>
    </vehicle>
    <vehicle id="a8a136" type="car" depart="2827.20" departLane="best" departPos="random" departSpeed="max">
        <route edges="-l1.1 -l1.2 -l3.1 -l3.2"/>
    </vehicle>
    <vehicle id="a8a138" type="motor" depart="2827.60" departLane="best" departPos="random" departSpeed="max">
        <route edges="l2.1 l2.2 -l3.1 -l3.2 -l3.3"/>
    </vehicle>
    <vehicle id="a8a139" type="car" depart="2827.80" departLane="best" departPos="random" departSpeed="max">
        <route edges="-l1.1 -l1.2 -l3.1 -l3.2"/>
    </vehicle>
    <vehicle id="a8a141" type="motor" depart="2828.20" departLane="best" departPos="random" departSpeed="max">
        <route edges="l3.2"/>
    </vehicle>
    <vehicle id="a8a142" type="car" depart="2828.40" departLane="best" departPos="random" departSpeed="max">
        <route edges="l2.2 -l3.1 -l3.2 -l3.3 -l5"/>
    </vehicle>
    <vehicle id="a8a143" type="car" depart="2828.60" departLane="best" departPos="random" departSpeed="max">
        <route edges="l3.3 l3.2 l3.1"/>
    </vehicle>
    <vehicle id="a8a146" type="car" depart="2829.20" departLane="best" departPos="random" departSpeed="max">
        <route edges="-l1.1 -l1.2"/>
    </vehicle>
    <vehicle id="a8a147" type="motor" depart="2829.40" departLane="best" departPos="random" departSpeed="max">
        <route edges="l3.2 l3.1"/>
    </vehicle>
    <vehicle id="a8a151" type="car" depart="2830.20" departLane="best" departPos="random" departSpeed="max">
        <route edges="l2.1 l2.2"/>
    </vehicle>
    <vehicle id="a8a154" type="car" depart="2830.80" departLane="best" departPos="random" departSpeed="max">
        <route edges="-l3.2 -l3.3"/>
    </vehicle>
    <vehicle id="a8a158" type="motor" depart="2831.60" departLane="best" departPos="random" departSpeed="max">
        <route edges="l4.1 l4.2 l3.3 l3.2 l3.1"/>
    </vehicle>
    <vehicle id="a8a161" type="motor" depart="2832.20" departLane="best" departPos="random" departSpeed="max">
        <route edges="l2.1 l2.2 -l3.1 -l3.2 -l3.3"/>
    </vehicle>
    <vehicle id="a8a162" type="emergency" depart="2832.40" departLane="best" departPos="random" departSpeed="max">
        <route edges="-l1.1 -l1.2 -l3.1 -l3.2 -l3.3 -l4"/>
    </vehicle>
    <vehicle id="a8a163" type="car" depart="2832.60" departLane="best" departPos="random" departSpeed="max">
        <route edges="-l3.1"/>
    </vehicle>
    <vehicle id="a8a167" type="car" depart="2833.40" departLane="best" departPos="random" departSpeed="max">
        <route edges="l2.2 -l3.1 -l3.2"/>
    </vehicle>
    <vehicle id="a8a169" type="emergency" depart="2833.80" departLane="best" departPos="random" departSpeed="max">
        <route edges="-l3.1 -l3.2 -l3.3"/>
    </vehicle>
    <vehicle id="a8a170" type="car" depart="2834.00" departLane="best" departPos="random" departSpeed="max">
        <route edges="-l1.2 -l3.1 -l3.2 -l3.3 -l4"/>
    </vehicle>
    <vehicle id="a8a175" type="car" depart="2835.00" departLane="best" departPos="random" departSpeed="max">
        <route edges="-l3.1 -l3.2"/>
    </vehicle>
    <vehicle id="a8a177" type="car" depart="2835.40" departLane="best" departPos="random" departSpeed="max">
        <route edges="l4.2 l3.3 l3.2"/>
    </vehicle>
    <vehicle id="a8a178" type="emergency" depart="2835.60" departLane="best" departPos="random" departSpeed="max">
        <route edges="-l3.1 -l3.2 -l3.3"/>
    </vehicle>
    <vehicle id="a8a180" type="car" depart="2836.00" departLane="best" departPos="random" departSpeed="max">
        <route edges="-l1.2"/>
    </vehicle>
    <vehicle id="a8a182" type="car" depart="2836.40" departLane="best" departPos="random" departSpeed="max">
        <route edges="l5.2"/>
    </vehicle>
    <vehicle id="a8a183" type="car" depart="2836.60" departLane="best" departPos="random" departSpeed="max">
        <route edges="-l1.1 -l1.2"/>
    </vehicle>
    <vehicle id="a8a184" type="car" depart="2836.80" departLane="best" departPos="random" departSpeed="max">
        <route edges="-l3.1 -l3.2 -l3.3 -l4"/>
    </vehicle>
    <vehicle id="a8a185" type="car" depart="2837.00" departLane="best" departPos="random" departSpeed="max">
        <route edges="-l1.1 -l1.2"/>
    </vehicle>
    <vehicle id="a8a189" type="car" depart="2837.80" departLane="best" departPos="random" departSpeed="max">
        <route edges="-l3.2 -l3.3 -l4"/>
    </vehicle>
    <vehicle id="a8a193" type="car" depart="2838.60" departLane="best" departPos="random" departSpeed="max">
        <route edges="l3.3 l3.2 l3.1 l1"/>
    </vehicle>
    <vehicle id="a8a194" type="car" depart="2838.80" departLane="best" departPos="random" departSpeed="max">
        <route edges="-l3.2 -l3.3 -l4"/>
    </vehicle>
    <vehicle id="a8a195" type="motor" depart="2839.00" departLane="best" departPos="random" departSpeed="max">
        <route edges="l4.2 l3.3 l3.2 l3.1 l1"/>
    </vehicle>
    <vehicle id="a8a196" type="car" depart="2839.20" departLane="best" departPos="random" departSpeed="max">
        <route edges="-l3.3"/>
    </vehicle>
    <vehicle id="a8a199" type="car" depart="2839.80" departLane="best" departPos="random" departSpeed="max">
        <route edges="l5.1 l5.2 l3.3 l3.2 l3.1 -l2"/>
    </vehicle>
    <vehicle id="a8a205" type="car" depart="2841.00" departLane="best" departPos="random" departSpeed="max">
        <route edges="-l1.1 -l1.2 -l3.1 -l3.2 -l3.3"/>
    </vehicle>
    <vehicle id="a8a206" type="car" depart="2841.20" departLane="best" departPos="random" departSpeed="max">
        <route edges="l4.2 l3.3 l3.2 l3.1 l1"/>
    </vehicle>
    <vehicle id="a8a209" type="car" depart="2841.80" departLane="best" departPos="random" departSpeed="max">
        <route edges="-l3.3"/>
    </vehicle>
    <vehicle id="a8a210" type="car" depart="2842.00" departLane="best" departPos="random" departSpeed="max">
        <route edges="l3.2"/>
    </vehicle>
    <vehicle id="a8a213" type="car" depart="2842.60" departLane="best" departPos="random" departSpeed="max">
        <route edges="l4.2 l3.3"/>
    </vehicle>
    <vehicle id="a8a214" type="car" depart="2842.80" departLane="best" departPos="random" departSpeed="max">
        <route edges="-l1.2 -l3.1 -l3.2 -l3.3 -l5"/>
    </vehicle>
    <vehicle id="a8a215" type="car" depart="2843.00" departLane="best" departPos="random" departSpeed="max">
        <route edges="l3.1 l1"/>
    </vehicle>
    <vehicle id="a8a218" type="car" depart="2843.60" departLane="best" departPos="random" departSpeed="max">
        <route edges="l5.2 l3.3 l3.2 l3.1"/>
    </vehicle>
    <vehicle id="a8a219" type="car" depart="2843.80" departLane="best" departPos="random" departSpeed="max">
        <route edges="-l3.2"/>
    </vehicle>
    <vehicle id="a8a224" type="car" depart="2844.80" departLane="best" departPos="random" departSpeed="max">
        <route edges="-l3.3"/>
    </vehicle>
    <vehicle id="a8a225" type="motor" depart="2845.00" departLane="best" departPos="random" departSpeed="max">
        <route edges="l3.2"/>
    </vehicle>
    <vehicle id="a8a226" type="motor" depart="2845.20" departLane="best" departPos="random" departSpeed="max">
        <route edges="l4.2 l3.3 l3.2 l3.1 l1"/>
    </vehicle>
    <vehicle id="a8a234" type="car" depart="2846.80" departLane="best" departPos="random" departSpeed="max">
        <route edges="-l3.3"/>
    </vehicle>
    <vehicle id="a8a236" type="emergency" depart="2847.20" departLane="best" departPos="random" departSpeed="max">
        <route edges="-l1.2 -l3.1 -l3.2 -l3.3"/>
    </vehicle>
    <vehicle id="a8a237" type="car" depart="2847.40" departLane="best" departPos="random" departSpeed="max">
        <route edges="l3.1"/>
    </vehicle>
    <vehicle id="a8a239" type="car" depart="2847.80" departLane="best" departPos="random" departSpeed="max">
        <route edges="l4.1 l4.2 -l5"/>
    </vehicle>
    <vehicle id="a8a240" type="car" depart="2848.00" departLane="best" departPos="random" departSpeed="max">
        <route edges="l4.2 l3.3 l3.2 l3.1 l1"/>
    </vehicle>
    <vehicle id="a8a243" type="car" depart="2848.60" departLane="best" departPos="random" departSpeed="max">
        <route edges="-l1.1 -l1.2"/>
    </vehicle>
    <vehicle id="a8a244" type="car" depart="2848.80" departLane="best" departPos="random" departSpeed="max">
        <route edges="l3.1"/>
    </vehicle>
    <vehicle id="a8a245" type="car" depart="2849.00" departLane="best" departPos="random" departSpeed="max">
        <route edges="l2.2"/>
    </vehicle>
    <vehicle id="a8a252" type="car" depart="2850.40" departLane="best" departPos="random" departSpeed="max">
        <route edges="-l3.3 -l4"/>
    </vehicle>
    <vehicle id="a8a254" type="car" depart="2850.80" departLane="best" departPos="random" departSpeed="max">
        <route edges="-l1.1 -l1.2"/>
    </vehicle>
    <vehicle id="a8a255" type="car" depart="2851.00" departLane="best" departPos="random" departSpeed="max">
        <route edges="l3.3 l3.2 l3.1 l1"/>
    </vehicle>
    <vehicle id="a8a256" type="car" depart="2851.20" departLane="best" departPos="random" departSpeed="max">
        <route edges="l2.2 l1"/>
    </vehicle>
    <vehicle id="a8a258" type="car" depart="2851.60" departLane="best" departPos="random" departSpeed="max">
        <route edges="-l1.1 -l1.2 -l2"/>
    </vehicle>
    <vehicle id="a8a259" type="car" depart="2851.80" departLane="best" departPos="random" departSpeed="max">
        <route edges="-l3.2 -l3.3"/>
    </vehicle>
    <vehicle id="a8a264" type="car" depart="2852.80" departLane="best" departPos="random" departSpeed="max">
        <route edges="l2.2 -l3.1 -l3.2 -l3.3 -l4"/>
    </vehicle>
    <vehicle id="a8a267" type="car" depart="2853.40" departLane="best" departPos="random" departSpeed="max">
        <route edges="-l1.1 -l1.2 -l3.1"/>
    </vehicle>
    <vehicle id="a8a268" type="motor" depart="2853.60" departLane="best" departPos="random" departSpeed="max">
        <route edges="-l3.2"/>
    </vehicle>
    <vehicle id="a8a270" type="car" depart="2854.00" departLane="best" departPos="random" departSpeed="max">
        <route edges="l4.2 l3.3 l3.2 l3.1"/>
    </vehicle>
    <vehicle id="a8a275" type="car" depart="2855.00" departLane="best" departPos="random" departSpeed="max">
        <route edges="-l3.1 -l3.2 -l3.3 -l5"/>
    </vehicle>
    <vehicle id="a8a276" type="motor" depart="2855.20" departLane="best" departPos="random" departSpeed="max">
        <route edges="l4.2 l3.3 l3.2 l3.1 l1"/>
    </vehicle>
    <vehicle id="a8a277" type="car" depart="2855.40" departLane="best" departPos="random" departSpeed="max">
        <route edges="l3.3 l3.2 l3.1"/>
    </vehicle>
    <vehicle id="a8a279" type="car" depart="2855.80" departLane="best" departPos="random" departSpeed="max">
        <route edges="-l1.2"/>
    </vehicle>
    <vehicle id="a8a280" type="car" depart="2856.00" departLane="best" departPos="random" departSpeed="max">
        <route edges="-l1.2 -l3.1"/>
    </vehicle>
    <vehicle id="a8a282" type="car" depart="2856.40" departLane="best" departPos="random" departSpeed="max">
        <route edges="-l1.1 -l1.2 -l2"/>
    </vehicle>
    <vehicle id="a8a283" type="car" depart="2856.60" departLane="best" departPos="random" departSpeed="max">
        <route edges="l5.2"/>
    </vehicle>
    <vehicle id="a8a285" type="car" depart="2857.00" departLane="best" departPos="random" departSpeed="max">
        <route edges="l2.1 l2.2 l1"/>
    </vehicle>
    <vehicle id="a8a286" type="emergency" depart="2857.20" departLane="best" departPos="random" departSpeed="max">
        <route edges="l4.1 l4.2 l3.3 l3.2 l3.1"/>
    </vehicle>
    <vehicle id="a8a290" type="motor" depart="2858.00" departLane="best" departPos="random" departSpeed="max">
        <route edges="l3.2"/>
    </vehicle>
    <vehicle id="a8a291" type="car" depart="2858.20" departLane="best" departPos="random" departSpeed="max">
        <route edges="-l1.1 -l1.2 -l3.1 -l3.2"/>
    </vehicle>
    <vehicle id="a8a297" type="car" depart="2859.40" departLane="best" departPos="random" departSpeed="max">
        <route edges="-l3.3 -l5"/>
    </vehicle>
    <vehicle id="a8a299" type="motor" depart="2859.80" departLane="best" departPos="random" departSpeed="max">
        <route edges="l3.2 l3.1 -l2"/>
    </vehicle>
    <vehicle id="a8a300" type="motor" depart="2860.00" departLane="best" departPos="random" departSpeed="max">
        <route edges="l4.2 l3.3"/>
    </vehicle>
    <vehicle id="a8a301" type="car" depart="2860.20" departLane="best" departPos="random" departSpeed="max">
        <route edges="-l3.2"/>
    </vehicle>
    <vehicle id="a8a302" type="car" depart="2860.40" departLane="best" departPos="random" departSpeed="max">
        <route edges="l2.2 -l3.1 -l3.2"/>
    </vehicle>
    <vehicle id="a8a304" type="car" depart="2860.80" departLane="best" departPos="random" departSpeed="max">
        <route edges="-l3.2 -l3.3 -l5"/>
    </vehicle>
    <vehicle id="a8a309" type="motor" depart="2861.80" departLane="best" departPos="random" departSpeed="max">
        <route edges="l5.1 l5.2 l3.3 l3.2 l3.1 -l2"/>
    </vehicle>
    <vehicle id="a8a311" type="car" depart="2862.20" departLane="best" departPos="random" departSpeed="max">
        <route edges="-l1.2 -l3.1 -l3.2 -l3.3"/>
    </vehicle>
    <vehicle id="a8a313" type="motor" depart="2862.60" departLane="best" departPos="random" departSpeed="max">
        <route edges="l2.1 l2.2 -l3.1 -l3.2"/>
    </vehicle>
    <vehicle id="a8a317" type="car" depart="2863.40" departLane="best" departPos="random" departSpeed="max">
        <route edges="-l1.1 -l1.2 -l3.1 -l3.2 -l3.3 -l4"/>
    </vehicle>
    <vehicle id="a8a322" type="motor" depart="2864.40" departLane="best" departPos="random" departSpeed="max">
        <route edges="l4.1 l4.2"/>
    </vehicle>
    <vehicle id="a8a324" type="car" depart="2864.80" departLane="best" departPos="random" departSpeed="max">
        <route edges="-l1.2 -l3.1"/>
    </vehicle>
    <vehicle id="a8a325" type="motor" depart="2865.00" departLane="best" departPos="random" departSpeed="max">
        <route edges="l2.1 l2.2 -l3.1 -l3.2"/>
    </vehicle>
    <vehicle id="a8a329" type="car" depart="2865.80" departLane="best" departPos="random" departSpeed="max">
        <route edges="l3.1 l1"/>
    </vehicle>
    <vehicle id="a8a330" type="emergency" depart="2866.00" departLane="best" departPos="random" departSpeed="max">
        <route edges="l2.1 l2.2 -l3.1"/>
    </vehicle>
    <vehicle id="a8a333" type="car" depart="2866.60" departLane="best" departPos="random" departSpeed="max">
        <route edges="l4.2 l3.3"/>
    </vehicle>
    <vehicle id="a8a340" type="motor" depart="2868.00" departLane="best" departPos="random" departSpeed="max">
        <route edges="l3.2"/>
    </vehicle>
    <vehicle id="a8a343" type="motor" depart="2868.60" departLane="best" departPos="random" departSpeed="max">
        <route edges="l2.2 -l3.1 -l3.2"/>
    </vehicle>
    <vehicle id="a8a345" type="car" depart="2869.00" departLane="best" departPos="random" departSpeed="max">
        <route edges="l2.2 -l3.1 -l3.2 -l3.3"/>
    </vehicle>
    <vehicle id="a8a346" type="car" depart="2869.20" departLane="best" departPos="random" departSpeed="max">
        <route edges="l5.2 l3.3 l3.2"/>
    </vehicle>
    <vehicle id="a8a355" type="car" depart="2871.00" departLane="best" departPos="random" departSpeed="max">
        <route edges="l4.1 l4.2 l3.3 l3.2"/>
    </vehicle>
    <vehicle id="a8a357" type="motor" depart="2871.40" departLane="best" departPos="random" departSpeed="max">
        <route edges="l3.1 -l2"/>
    </vehicle>
    <vehicle id="a8a359" type="car" depart="2871.80" departLane="best" departPos="random" departSpeed="max">
        <route edges="-l1.1 -l1.2"/>
    </vehicle>
    <vehicle id="a8a362" type="car" depart="2872.40" departLane="best" departPos="random" departSpeed="max">
        <route edges="-l1.1 -l1.2"/>
    </vehicle>
    <vehicle id="a8a366" type="emergency" depart="2873.20" departLane="best" departPos="random" departSpeed="max">
        <route edges="-l3.1 -l3.2 -l3.3"/>
    </vehicle>
    <vehicle id="a8a369" type="car" depart="2873.80" departLane="best" departPos="random" departSpeed="max">
        <route edges="-l1.2"/>
    </vehicle>
    <vehicle id="a8a373" type="car" depart="2874.60" departLane="best" departPos="random" departSpeed="max">
        <route edges="-l3.2"/>
    </vehicle>
    <vehicle id="a8a374" type="car" depart="2874.80" departLane="best" departPos="random" departSpeed="max">
        <route edges="l2.1 l2.2 -l3.1 -l3.2"/>
    </vehicle>
    <vehicle id="a8a381" type="car" depart="2876.20" departLane="best" departPos="random" departSpeed="max">
        <route edges="l4.2 l3.3 l3.2 l3.1"/>
    </vehicle>
    <vehicle id="a8a384" type="emergency" depart="2876.80" departLane="best" departPos="random" departSpeed="max">
        <route edges="l2.1 l2.2 l1"/>
    </vehicle>
    <vehicle id="a8a385" type="car" depart="2877.00" departLane="best" departPos="random" departSpeed="max">
        <route edges="l2.1 l2.2 -l3.1 -l3.2 -l3.3"/>
    </vehicle>
    <vehicle id="a8a386" type="car" depart="2877.20" departLane="best" departPos="random" departSpeed="max">
        <route edges="-l1.2 -l3.1 -l3.2"/>
    </vehicle>
    <vehicle id="a8a389" type="car" depart="2877.80" departLane="best" departPos="random" departSpeed="max">
        <route edges="-l1.1 -l1.2 -l3.1"/>
    </vehicle>
    <vehicle id="a8a393" type="motor" depart="2878.60" departLane="best" departPos="random" departSpeed="max">
        <route edges="-l3.3"/>
    </vehicle>
    <vehicle id="a8a395" type="car" depart="2879.00" departLane="best" departPos="random" departSpeed="max">
        <route edges="-l3.3"/>
    </vehicle>
    <vehicle id="a8a397" type="motor" depart="2879.40" departLane="best" departPos="random" departSpeed="max">
        <route edges="-l1.2 -l3.1 -l3.2"/>
    </vehicle>
    <vehicle id="a8a399" type="car" depart="2879.80" departLane="best" departPos="random" departSpeed="max">
        <route edges="l3.2 l3.1"/>
    </vehicle>
    <vehicle id="a8a400" type="car" depart="2880.00" departLane="best" departPos="random" departSpeed="max">
        <route edges="l4.1 l4.2 l3.3 l3.2"/>
    </vehicle>
    <vehicle id="a8a401" type="car" depart="2880.20" departLane="best" departPos="random" departSpeed="max">
        <route edges="-l1.1 -l1.2 -l3.1 -l3.2"/>
    </vehicle>
    <vehicle id="a8a402" type="car" depart="2880.40" departLane="best" departPos="random" departSpeed="max">
        <route edges="l5.2 l3.3 l3.2"/>
    </vehicle>
    <vehicle id="a8a403" type="car" depart="2880.60" departLane="best" departPos="random" departSpeed="max">
        <route edges="-l3.1 -l3.2 -l3.3 -l4"/>
    </vehicle>
    <vehicle id="a8a410" type="motor" depart="2882.00" departLane="best" departPos="random" departSpeed="max">
        <route edges="l2.2 -l3.1 -l3.2 -l3.3 -l4"/>
    </vehicle>
    <vehicle id="a8a411" type="motor" depart="2882.20" departLane="best" departPos="random" departSpeed="max">
        <route edges="-l1.2 -l3.1"/>
    </vehicle>
    <vehicle id="a8a413" type="car" depart="2882.60" departLane="best" departPos="random" departSpeed="max">
        <route edges="l3.2 l3.1 -l2"/>
    </vehicle>
    <vehicle id="a8a416" type="motor" depart="2883.20" departLane="best" departPos="random" departSpeed="max">
        <route edges="-l1.2 -l3.1 -l3.2 -l3.3"/>
    </vehicle>
    <vehicle id="a8a418" type="car" depart="2883.60" departLane="best" departPos="random" departSpeed="max">
        <route edges="l3.2 l3.1"/>
    </vehicle>
    <vehicle id="a8a421" type="car" depart="2884.20" departLane="best" departPos="random" departSpeed="max">
        <route edges="-l1.1 -l1.2 -l3.1 -l3.2 -l3.3"/>
    </vehicle>
    <vehicle id="a8a423" type="car" depart="2884.60" departLane="best" departPos="random" departSpeed="max">
        <route edges="l3.2 l3.1"/>
    </vehicle>
    <vehicle id="a8a424" type="car" depart="2884.80" departLane="best" departPos="random" departSpeed="max">
        <route edges="l4.2"/>
    </vehicle>
    <vehicle id="a8a428" type="motor" depart="2885.60" departLane="best" departPos="random" departSpeed="max">
        <route edges="l4.1 l4.2 l3.3 l3.2 l3.1 -l2"/>
    </vehicle>
    <vehicle id="a8a430" type="car" depart="2886.00" departLane="best" departPos="random" departSpeed="max">
        <route edges="-l1.2 -l3.1 -l3.2"/>
    </vehicle>
    <vehicle id="a8a435" type="car" depart="2887.00" departLane="best" departPos="random" departSpeed="max">
        <route edges="-l3.1"/>
    </vehicle>