<?xml version="1.0" encoding="UTF-8"?>

<!-- generated on Wed May  5 04:57:51 2021 by Eclipse SUMO duarouter Version 1.9.0
<configuration xmlns:xsi="http://www.w3.org/2001/XMLSchema-instance" xsi:noNamespaceSchemaLocation="http://sumo.dlr.de/xsd/duarouterConfiguration.xsd">

    <input>
        <net-file value="./sumo_files/monash_intersection/monash_intersection.net.xml"/>
        <additional-files value="./sumo_files/monash_intersection/monash_intersection.add.xml"/>
        <route-files value="./sumo_files/monash_intersection/trips.trips.xml"/>
    </input>

    <output>
        <output-file value="./sumo_files/monash_intersection/monash_intersection7.rou.xml"/>
        <vtype-output value="vtypeout.xml"/>
        <alternatives-output value="./sumo_files/monash_intersection/monash_intersection7.rou.alt.xml"/>
    </output>

    <time>
        <begin value="2400.0"/>
        <end value="2800.0"/>
    </time>

    <report>
        <no-warnings value="true"/>
        <ignore-errors value="true"/>
        <no-step-log value="true"/>
    </report>

</configuration>
-->

<routes xmlns:xsi="http://www.w3.org/2001/XMLSchema-instance" xsi:noNamespaceSchemaLocation="http://sumo.dlr.de/xsd/routes_file.xsd">
    <vehicle id="a7a0" type="motor" depart="2400.00" departLane="best" departPos="random" departSpeed="max">
        <route edges="l4.2 -l5"/>
    </vehicle>
    <vehicle id="a7a2" type="car" depart="2400.40" departLane="best" departPos="random" departSpeed="max">
        <route edges="l5.1 l5.2 l3.3 l3.2 l3.1 -l2"/>
    </vehicle>
    <vehicle id="a7a5" type="car" depart="2401.00" departLane="best" departPos="random" departSpeed="max">
        <route edges="l4.2"/>
    </vehicle>
    <vehicle id="a7a6" type="car" depart="2401.20" departLane="best" departPos="random" departSpeed="max">
        <route edges="l5.2 l3.3 l3.2 l3.1 -l2"/>
    </vehicle>
    <vehicle id="a7a9" type="car" depart="2401.80" departLane="best" departPos="random" departSpeed="max">
        <route edges="l5.1 l5.2 l3.3 l3.2"/>
    </vehicle>
    <vehicle id="a7a11" type="car" depart="2402.20" departLane="best" departPos="random" departSpeed="max">
        <route edges="-l1.2 -l3.1 -l3.2 -l3.3 -l5"/>
    </vehicle>
    <vehicle id="a7a16" type="car" depart="2403.20" departLane="best" departPos="random" departSpeed="max">
        <route edges="l5.1 l5.2 l3.3 l3.2 l3.1"/>
    </vehicle>
    <vehicle id="a7a18" type="car" depart="2403.60" departLane="best" departPos="random" departSpeed="max">
        <route edges="l2.2 -l3.1 -l3.2 -l3.3 -l4"/>
    </vehicle>
    <vehicle id="a7a19" type="car" depart="2403.80" departLane="best" departPos="random" departSpeed="max">
        <route edges="l2.2 l1"/>
    </vehicle>
    <vehicle id="a7a24" type="motor" depart="2404.80" departLane="best" departPos="random" departSpeed="max">
        <route edges="l3.3 l3.2 l3.1"/>
    </vehicle>
    <vehicle id="a7a30" type="car" depart="2406.00" departLane="best" departPos="random" departSpeed="max">
        <route edges="l3.1 l1"/>
    </vehicle>
    <vehicle id="a7a32" type="car" depart="2406.40" departLane="best" departPos="random" departSpeed="max">
        <route edges="l3.1 l1"/>
    </vehicle>
    <vehicle id="a7a34" type="motor" depart="2406.80" departLane="best" departPos="random" departSpeed="max">
        <route edges="l3.2 l3.1 -l2"/>
    </vehicle>
    <vehicle id="a7a35" type="car" depart="2407.00" departLane="best" departPos="random" departSpeed="max">
        <route edges="l4.2 l3.3"/>
    </vehicle>
    <vehicle id="a7a37" type="car" depart="2407.40" departLane="best" departPos="random" departSpeed="max">
        <route edges="l5.2 l3.3 l3.2"/>
    </vehicle>
    <vehicle id="a7a38" type="car" depart="2407.60" departLane="best" departPos="random" departSpeed="max">
        <route edges="-l1.2 -l3.1"/>
    </vehicle>
    <vehicle id="a7a41" type="motor" depart="2408.20" departLane="best" departPos="random" departSpeed="max">
        <route edges="l3.2 l3.1"/>
    </vehicle>
    <vehicle id="a7a42" type="car" depart="2408.40" departLane="best" departPos="random" departSpeed="max">
        <route edges="l3.2 l3.1 -l2"/>
    </vehicle>
    <vehicle id="a7a43" type="car" depart="2408.60" departLane="best" departPos="random" departSpeed="max">
        <route edges="-l1.2 -l3.1 -l3.2 -l3.3 -l4"/>
    </vehicle>
    <vehicle id="a7a46" type="car" depart="2409.20" departLane="best" departPos="random" departSpeed="max">
        <route edges="l5.2 l3.3 l3.2"/>
    </vehicle>
    <vehicle id="a7a47" type="emergency" depart="2409.40" departLane="best" departPos="random" departSpeed="max">
        <route edges="-l1.2 -l3.1 -l3.2 -l3.3 -l5"/>
    </vehicle>
    <vehicle id="a7a49" type="car" depart="2409.80" departLane="best" departPos="random" departSpeed="max">
        <route edges="l4.1 l4.2 l3.3 l3.2"/>
    </vehicle>
    <vehicle id="a7a56" type="car" depart="2411.20" departLane="best" departPos="random" departSpeed="max">
        <route edges="l5.2 l3.3 l3.2 l3.1"/>
    </vehicle>
    <vehicle id="a7a61" type="car" depart="2412.20" departLane="best" departPos="random" departSpeed="max">
        <route edges="l2.1 l2.2 -l3.1"/>
    </vehicle>
    <vehicle id="a7a64" type="car" depart="2412.80" departLane="best" departPos="random" departSpeed="max">
        <route edges="l4.1 l4.2 l3.3 l3.2 l3.1"/>
    </vehicle>
    <vehicle id="a7a70" type="car" depart="2414.00" departLane="best" departPos="random" departSpeed="max">
        <route edges="-l1.1 -l1.2 -l3.1 -l3.2 -l3.3 -l4"/>
    </vehicle>
    <vehicle id="a7a74" type="car" depart="2414.80" departLane="best" departPos="random" departSpeed="max">
        <route edges="l3.2 l3.1"/>
    </vehicle>
    <vehicle id="a7a80" type="car" depart="2416.00" departLane="best" departPos="random" departSpeed="max">
        <route edges="l2.2 -l3.1"/>
    </vehicle>
    <vehicle id="a7a81" type="car" depart="2416.20" departLane="best" departPos="random" departSpeed="max">
        <route edges="l2.2 -l3.1 -l3.2"/>
    </vehicle>
    <vehicle id="a7a82" type="car" depart="2416.40" departLane="best" departPos="random" departSpeed="max">
        <route edges="l2.1 l2.2 -l3.1 -l3.2 -l3.3"/>
    </vehicle>
    <vehicle id="a7a88" type="car" depart="2417.60" departLane="best" departPos="random" departSpeed="max">
        <route edges="l2.1 l2.2 -l3.1"/>
    </vehicle>
    <vehicle id="a7a92" type="car" depart="2418.40" departLane="best" departPos="random" departSpeed="max">
        <route edges="-l1.1 -l1.2 -l3.1 -l3.2"/>
    </vehicle>
    <vehicle id="a7a93" type="car" depart="2418.60" departLane="best" departPos="random" departSpeed="max">
        <route edges="-l1.2 -l3.1 -l3.2 -l3.3"/>
    </vehicle>
    <vehicle id="a7a95" type="motor" depart="2419.00" departLane="best" departPos="random" departSpeed="max">
        <route edges="-l1.2 -l3.1 -l3.2 -l3.3"/>
    </vehicle>
    <vehicle id="a7a96" type="car" depart="2419.20" departLane="best" departPos="random" departSpeed="max">
        <route edges="l3.2 l3.1"/>
    </vehicle>
    <vehicle id="a7a97" type="motor" depart="2419.40" departLane="best" departPos="random" departSpeed="max">
        <route edges="-l1.1 -l1.2 -l2"/>
    </vehicle>
    <vehicle id="a7a100" type="car" depart="2420.00" departLane="best" departPos="random" departSpeed="max">
        <route edges="l2.2 -l3.1 -l3.2 -l3.3 -l5"/>
    </vehicle>
    <vehicle id="a7a102" type="motor" depart="2420.40" departLane="best" departPos="random" departSpeed="max">
        <route edges="l4.1 l4.2"/>
    </vehicle>
    <vehicle id="a7a103" type="car" depart="2420.60" departLane="best" departPos="random" departSpeed="max">
        <route edges="l2.1 l2.2 -l3.1 -l3.2"/>
    </vehicle>
    <vehicle id="a7a109" type="car" depart="2421.80" departLane="best" departPos="random" departSpeed="max">
        <route edges="l5.1 l5.2 -l4"/>
    </vehicle>
    <vehicle id="a7a113" type="car" depart="2422.60" departLane="best" departPos="random" departSpeed="max">
        <route edges="l3.2 l3.1"/>
    </vehicle>
    <vehicle id="a7a116" type="car" depart="2423.20" departLane="best" departPos="random" departSpeed="max">
        <route edges="l4.1 l4.2"/>
    </vehicle>
    <vehicle id="a7a121" type="car" depart="2424.20" departLane="best" departPos="random" departSpeed="max">
        <route edges="l4.1 l4.2 -l5"/>
    </vehicle>
    <vehicle id="a7a126" type="car" depart="2425.20" departLane="best" departPos="random" departSpeed="max">
        <route edges="l4.2 l3.3 l3.2"/>
    </vehicle>
    <vehicle id="a7a130" type="car" depart="2426.00" departLane="best" departPos="random" departSpeed="max">
        <route edges="l2.2 -l3.1 -l3.2 -l3.3"/>
    </vehicle>
    <vehicle id="a7a131" type="car" depart="2426.20" departLane="best" departPos="random" departSpeed="max">
        <route edges="l4.2 l3.3"/>
    </vehicle>
    <vehicle id="a7a135" type="car" depart="2427.00" departLane="best" departPos="random" departSpeed="max">
        <route edges="l5.1 l5.2 l3.3 l3.2"/>
    </vehicle>
    <vehicle id="a7a136" type="car" depart="2427.20" departLane="best" departPos="random" departSpeed="max">
        <route edges="-l1.2 -l2"/>
    </vehicle>
    <vehicle id="a7a139" type="car" depart="2427.80" departLane="best" departPos="random" departSpeed="max">
        <route edges="l3.3 l3.2 l3.1"/>
    </vehicle>
    <vehicle id="a7a140" type="emergency" depart="2428.00" departLane="best" departPos="random" departSpeed="max">
        <route edges="l5.2 l3.3 l3.2"/>
    </vehicle>
    <vehicle id="a7a144" type="motor" depart="2428.80" departLane="best" departPos="random" departSpeed="max">
        <route edges="l2.1 l2.2 -l3.1 -l3.2 -l3.3 -l5"/>
    </vehicle>
    <vehicle id="a7a147" type="motor" depart="2429.40" departLane="best" departPos="random" departSpeed="max">
        <route edges="l2.1 l2.2 -l3.1 -l3.2"/>
    </vehicle>
    <vehicle id="a7a151" type="car" depart="2430.20" departLane="best" departPos="random" departSpeed="max">
        <route edges="l2.2 -l3.1"/>
    </vehicle>
    <vehicle id="a7a153" type="car" depart="2430.60" departLane="best" departPos="random" departSpeed="max">
        <route edges="-l3.3"/>
    </vehicle>
    <vehicle id="a7a154" type="car" depart="2430.80" departLane="best" departPos="random" departSpeed="max">
        <route edges="l3.2 l3.1 -l2"/>
    </vehicle>
    <vehicle id="a7a155" type="motor" depart="2431.00" departLane="best" departPos="random" departSpeed="max">
        <route edges="l2.1 l2.2 l1"/>
    </vehicle>
    <vehicle id="a7a159" type="car" depart="2431.80" departLane="best" departPos="random" departSpeed="max">
        <route edges="-l1.1 -l1.2 -l3.1 -l3.2"/>
    </vehicle>
    <vehicle id="a7a160" type="car" depart="2432.00" departLane="best" departPos="random" departSpeed="max">
        <route edges="l4.2 l3.3 l3.2 l3.1"/>
    </vehicle>
    <vehicle id="a7a162" type="emergency" depart="2432.40" departLane="best" departPos="random" departSpeed="max">
        <route edges="l3.2 l3.1"/>
    </vehicle>
    <vehicle id="a7a171" type="car" depart="2434.20" departLane="best" departPos="random" departSpeed="max">
        <route edges="l3.1"/>
    </vehicle>
    <vehicle id="a7a173" type="car" depart="2434.60" departLane="best" departPos="random" departSpeed="max">
        <route edges="-l1.2 -l3.1 -l3.2"/>
    </vehicle>
    <vehicle id="a7a174" type="car" depart="2434.80" departLane="best" departPos="random" departSpeed="max">
        <route edges="-l3.1 -l3.2 -l3.3 -l4"/>
    </vehicle>
    <vehicle id="a7a178" type="emergency" depart="2435.60" departLane="best" departPos="random" departSpeed="max">
        <route edges="l3.2 l3.1"/>
    </vehicle>
    <vehicle id="a7a179" type="car" depart="2435.80" departLane="best" departPos="random" departSpeed="max">
        <route edges="l2.2 -l3.1"/>
    </vehicle>
    <vehicle id="a7a182" type="car" depart="2436.40" departLane="best" departPos="random" departSpeed="max">
        <route edges="-l1.2 -l3.1 -l3.2 -l3.3 -l4"/>
    </vehicle>
    <vehicle id="a7a185" type="car" depart="2437.00" departLane="best" departPos="random" departSpeed="max">
        <route edges="-l1.2 -l3.1 -l3.2 -l3.3"/>
    </vehicle>
    <vehicle id="a7a186" type="car" depart="2437.20" departLane="best" departPos="random" departSpeed="max">
        <route edges="-l1.2 -l2"/>
    </vehicle>
    <vehicle id="a7a188" type="motor" depart="2437.60" departLane="best" departPos="random" departSpeed="max">
        <route edges="l4.2 l3.3 l3.2"/>
    </vehicle>
    <vehicle id="a7a189" type="car" depart="2437.80" departLane="best" departPos="random" departSpeed="max">
        <route edges="-l1.1 -l1.2 -l3.1 -l3.2 -l3.3"/>
    </vehicle>
    <vehicle id="a7a191" type="motor" depart="2438.20" departLane="best" departPos="random" departSpeed="max">
        <route edges="l3.2 l3.1"/>
    </vehicle>
    <vehicle id="a7a192" type="car" depart="2438.40" departLane="best" departPos="random" departSpeed="max">
        <route edges="l3.3 l3.2 l3.1"/>
    </vehicle>
    <vehicle id="a7a194" type="car" depart="2438.80" departLane="best" departPos="random" departSpeed="max">
        <route edges="-l1.1 -l1.2 -l2"/>
    </vehicle>
    <vehicle id="a7a195" type="motor" depart="2439.00" departLane="best" departPos="random" departSpeed="max">
        <route edges="-l1.1 -l1.2 -l3.1"/>
    </vehicle>
    <vehicle id="a7a196" type="car" depart="2439.20" departLane="best" departPos="random" departSpeed="max">
        <route edges="l2.1 l2.2 -l3.1 -l3.2 -l3.3 -l5"/>
    </vehicle>
    <vehicle id="a7a197" type="motor" depart="2439.40" departLane="best" departPos="random" departSpeed="max">
        <route edges="l4.2 l3.3 l3.2 l3.1 l1"/>
    </vehicle>
    <vehicle id="a7a204" type="car" depart="2440.80" departLane="best" departPos="random" departSpeed="max">
        <route edges="-l1.1 -l1.2 -l3.1"/>
    </vehicle>
    <vehicle id="a7a207" type="car" depart="2441.40" departLane="best" departPos="random" departSpeed="max">
        <route edges="-l3.3 -l4"/>
    </vehicle>
    <vehicle id="a7a208" type="car" depart="2441.60" departLane="best" departPos="random" departSpeed="max">
        <route edges="l4.2 l3.3 l3.2"/>
    </vehicle>
    <vehicle id="a7a212" type="car" depart="2442.40" departLane="best" departPos="random" departSpeed="max">
        <route edges="-l1.1 -l1.2 -l3.1"/>
    </vehicle>
    <vehicle id="a7a215" type="car" depart="2443.00" departLane="best" departPos="random" departSpeed="max">
        <route edges="-l1.2 -l3.1 -l3.2 -l3.3"/>
    </vehicle>
    <vehicle id="a7a218" type="car" depart="2443.60" departLane="best" departPos="random" departSpeed="max">
        <route edges="l4.1 l4.2"/>
    </vehicle>
    <vehicle id="a7a223" type="car" depart="2444.60" departLane="best" departPos="random" departSpeed="max">
        <route edges="l3.2"/>
    </vehicle>
    <vehicle id="a7a224" type="car" depart="2444.80" departLane="best" departPos="random" departSpeed="max">
        <route edges="-l3.2"/>
    </vehicle>
    <vehicle id="a7a225" type="motor" depart="2445.00" departLane="best" departPos="random" departSpeed="max">
        <route edges="l3.1 l1"/>
    </vehicle>
    <vehicle id="a7a226" type="motor" depart="2445.20" departLane="best" departPos="random" departSpeed="max">
        <route edges="-l1.2 -l3.1 -l3.2"/>
    </vehicle>
    <vehicle id="a7a227" type="car" depart="2445.40" departLane="best" departPos="random" departSpeed="max">
        <route edges="l2.2 -l3.1 -l3.2 -l3.3"/>
    </vehicle>
    <vehicle id="a7a228" type="motor" depart="2445.60" departLane="best" departPos="random" departSpeed="max">
        <route edges="l3.1"/>
    </vehicle>
    <vehicle id="a7a229" type="car" depart="2445.80" departLane="best" departPos="random" departSpeed="max">
        <route edges="l3.1"/>
    </vehicle>
    <vehicle id="a7a230" type="car" depart="2446.00" departLane="best" departPos="random" departSpeed="max">
        <route edges="l3.2 l3.1"/>
    </vehicle>
    <vehicle id="a7a234" type="car" depart="2446.80" departLane="best" departPos="random" departSpeed="max">
        <route edges="l3.1"/>
    </vehicle>
    <vehicle id="a7a239" type="car" depart="2447.80" departLane="best" departPos="random" departSpeed="max">
        <route edges="-l3.2 -l3.3 -l4"/>
    </vehicle>
    <vehicle id="a7a240" type="car" depart="2448.00" departLane="best" departPos="random" departSpeed="max">
        <route edges="l3.2 l3.1"/>
    </vehicle>
    <vehicle id="a7a242" type="car" depart="2448.40" departLane="best" departPos="random" departSpeed="max">
        <route edges="-l1.2 -l3.1"/>
    </vehicle>
    <vehicle id="a7a245" type="car" depart="2449.00" departLane="best" departPos="random" departSpeed="max">
        <route edges="l4.2 l3.3 l3.2"/>
    </vehicle>
    <vehicle id="a7a249" type="car" depart="2449.80" departLane="best" departPos="random" departSpeed="max">
        <route edges="l5.2 l3.3"/>
    </vehicle>
    <vehicle id="a7a254" type="car" depart="2450.80" departLane="best" departPos="random" departSpeed="max">
        <route edges="l3.3 l3.2 l3.1 l1"/>
    </vehicle>
    <vehicle id="a7a255" type="car" depart="2451.00" departLane="best" departPos="random" departSpeed="max">
        <route edges="l3.2"/>
    </vehicle>
    <vehicle id="a7a256" type="car" depart="2451.20" departLane="best" departPos="random" departSpeed="max">
        <route edges="l3.3 l3.2 l3.1 -l2"/>
    </vehicle>
    <vehicle id="a7a258" type="car" depart="2451.60" departLane="best" departPos="random" departSpeed="max">
        <route edges="l2.1 l2.2 -l3.1"/>
    </vehicle>
    <vehicle id="a7a261" type="motor" depart="2452.20" departLane="best" departPos="random" departSpeed="max">
        <route edges="l3.2 l3.1 -l2"/>
    </vehicle>
    <vehicle id="a7a264" type="car" depart="2452.80" departLane="best" departPos="random" departSpeed="max">
        <route edges="-l1.2"/>
    </vehicle>
    <vehicle id="a7a265" type="car" depart="2453.00" departLane="best" departPos="random" departSpeed="max">
        <route edges="-l3.2"/>
    </vehicle>
    <vehicle id="a7a269" type="motor" depart="2453.80" departLane="best" departPos="random" departSpeed="max">
        <route edges="l4.1 l4.2 l3.3 l3.2 l3.1 -l2"/>
    </vehicle>
    <vehicle id="a7a270" type="car" depart="2454.00" departLane="best" departPos="random" departSpeed="max">
        <route edges="l4.1 l4.2"/>
    </vehicle>
    <vehicle id="a7a276" type="motor" depart="2455.20" departLane="best" departPos="random" departSpeed="max">
        <route edges="l4.2 l3.3 l3.2 l3.1 -l2"/>
    </vehicle>
    <vehicle id="a7a277" type="car" depart="2455.40" departLane="best" departPos="random" departSpeed="max">
        <route edges="-l1.1 -l1.2 -l3.1 -l3.2 -l3.3 -l5"/>
    </vehicle>
    <vehicle id="a7a278" type="car" depart="2455.60" departLane="best" departPos="random" departSpeed="max">
        <route edges="l2.1 l2.2 -l3.1 -l3.2"/>
    </vehicle>
    <vehicle id="a7a280" type="car" depart="2456.00" departLane="best" departPos="random" departSpeed="max">
        <route edges="-l1.2 -l3.1"/>
    </vehicle>
    <vehicle id="a7a281" type="car" depart="2456.20" departLane="best" departPos="random" departSpeed="max">
        <route edges="l2.1 l2.2 l1"/>
    </vehicle>
    <vehicle id="a7a283" type="car" depart="2456.60" departLane="best" departPos="random" departSpeed="max">
        <route edges="-l1.1 -l1.2 -l2"/>
    </vehicle>
    <vehicle id="a7a284" type="car" depart="2456.80" departLane="best" departPos="random" departSpeed="max">
        <route edges="l4.2 l3.3 l3.2 l3.1 l1"/>
    </vehicle>
    <vehicle id="a7a285" type="car" depart="2457.00" departLane="best" departPos="random" departSpeed="max">
        <route edges="-l3.1"/>
    </vehicle>
    <vehicle id="a7a287" type="car" depart="2457.40" departLane="best" departPos="random" departSpeed="max">
        <route edges="l2.2 -l3.1 -l3.2 -l3.3 -l4"/>
    </vehicle>
    <vehicle id="a7a291" type="car" depart="2458.20" departLane="best" departPos="random" departSpeed="max">
        <route edges="l3.2 l3.1 l1"/>
    </vehicle>
    <vehicle id="a7a294" type="motor" depart="2458.80" departLane="best" departPos="random" departSpeed="max">
        <route edges="-l1.2 -l3.1 -l3.2 -l3.3 -l5"/>
    </vehicle>
    <vehicle id="a7a295" type="motor" depart="2459.00" departLane="best" departPos="random" departSpeed="max">
        <route edges="l3.2"/>
    </vehicle>
    <vehicle id="a7a297" type="car" depart="2459.40" departLane="best" departPos="random" departSpeed="max">
        <route edges="-l3.2 -l3.3 -l4"/>
    </vehicle>
    <vehicle id="a7a299" type="motor" depart="2459.80" departLane="best" departPos="random" departSpeed="max">
        <route edges="l3.3 l3.2 l3.1"/>
    </vehicle>
    <vehicle id="a7a300" type="motor" depart="2460.00" departLane="best" departPos="random" departSpeed="max">
        <route edges="l2.2 -l3.1 -l3.2 -l3.3 -l4"/>
    </vehicle>
    <vehicle id="a7a301" type="car" depart="2460.20" departLane="best" departPos="random" departSpeed="max">
        <route edges="l4.2 l3.3 l3.2 l3.1 l1"/>
    </vehicle>
    <vehicle id="a7a304" type="car" depart="2460.80" departLane="best" departPos="random" departSpeed="max">
        <route edges="-l3.3"/>
    </vehicle>
    <vehicle id="a7a306" type="motor" depart="2461.20" departLane="best" departPos="random" departSpeed="max">
        <route edges="l4.2 l3.3 l3.2 l3.1 l1"/>
    </vehicle>
    <vehicle id="a7a309" type="motor" depart="2461.80" departLane="best" departPos="random" departSpeed="max">
        <route edges="l2.1 l2.2 -l3.1"/>
    </vehicle>
    <vehicle id="a7a311" type="car" depart="2462.20" departLane="best" departPos="random" departSpeed="max">
        <route edges="l3.3 l3.2 l3.1 -l2"/>
    </vehicle>
    <vehicle id="a7a313" type="motor" depart="2462.60" departLane="best" departPos="random" departSpeed="max">
        <route edges="l3.2"/>
    </vehicle>
    <vehicle id="a7a316" type="car" depart="2463.20" departLane="best" departPos="random" departSpeed="max">
        <route edges="-l3.3 -l5"/>
    </vehicle>
    <vehicle id="a7a317" type="car" depart="2463.40" departLane="best" departPos="random" departSpeed="max">
        <route edges="-l3.2"/>
    </vehicle>
    <vehicle id="a7a318" type="car" depart="2463.60" departLane="best" departPos="random" departSpeed="max">
        <route edges="l4.2 l3.3 l3.2"/>
    </vehicle>
    <vehicle id="a7a319" type="car" depart="2463.80" departLane="best" departPos="random" departSpeed="max">
        <route edges="l2.1 l2.2 -l3.1 -l3.2"/>
    </vehicle>
    <vehicle id="a7a320" type="car" depart="2464.00" departLane="best" departPos="random" departSpeed="max">
        <route edges="-l1.1 -l1.2 -l2"/>
    </vehicle>
    <vehicle id="a7a325" type="motor" depart="2465.00" departLane="best" departPos="random" departSpeed="max">
        <route edges="l3.3 l3.2 l3.1"/>
    </vehicle>
    <vehicle id="a7a327" type="car" depart="2465.40" departLane="best" departPos="random" departSpeed="max">
        <route edges="l3.3"/>
    </vehicle>
    <vehicle id="a7a328" type="car" depart="2465.60" departLane="best" departPos="random" departSpeed="max">
        <route edges="l3.2 l3.1 -l2"/>
    </vehicle>
    <vehicle id="a7a329" type="car" depart="2465.80" departLane="best" departPos="random" departSpeed="max">
        <route edges="-l1.2 -l3.1 -l3.2"/>
    </vehicle>
    <vehicle id="a7a330" type="emergency" depart="2466.00" departLane="best" departPos="random" departSpeed="max">
        <route edges="l4.2 l3.3 l3.2"/>
    </vehicle>
    <vehicle id="a7a331" type="car" depart="2466.20" departLane="best" departPos="random" departSpeed="max">
        <route edges="l2.1 l2.2 -l3.1 -l3.2"/>
    </vehicle>
    <vehicle id="a7a332" type="car" depart="2466.40" departLane="best" departPos="random" departSpeed="max">
        <route edges="l3.3 l3.2"/>
    </vehicle>
    <vehicle id="a7a333" type="car" depart="2466.60" departLane="best" departPos="random" departSpeed="max">
        <route edges="-l1.2 -l3.1 -l3.2 -l3.3 -l5"/>
    </vehicle>
    <vehicle id="a7a336" type="car" depart="2467.20" departLane="best" departPos="random" departSpeed="max">
        <route edges="l4.1 l4.2 l3.3"/>
    </vehicle>
    <vehicle id="a7a344" type="car" depart="2468.80" departLane="best" departPos="random" departSpeed="max">
        <route edges="l3.2 l3.1"/>
    </vehicle>
    <vehicle id="a7a346" type="car" depart="2469.20" departLane="best" departPos="random" departSpeed="max">
        <route edges="l2.1 l2.2 -l3.1 -l3.2 -l3.3 -l4"/>
    </vehicle>
    <vehicle id="a7a348" type="motor" depart="2469.60" departLane="best" departPos="random" departSpeed="max">
        <route edges="-l3.1 -l3.2 -l3.3 -l4"/>
    </vehicle>
    <vehicle id="a7a351" type="car" depart="2470.20" departLane="best" departPos="random" departSpeed="max">
        <route edges="-l1.2 -l3.1"/>
    </vehicle>
    <vehicle id="a7a353" type="motor" depart="2470.60" departLane="best" departPos="random" departSpeed="max">
        <route edges="l3.3 l3.2"/>
    </vehicle>
    <vehicle id="a7a354" type="motor" depart="2470.80" departLane="best" departPos="random" departSpeed="max">
        <route edges="-l3.3"/>
    </vehicle>
    <vehicle id="a7a358" type="car" depart="2471.60" departLane="best" departPos="random" departSpeed="max">
        <route edges="l3.1 l1"/>
    </vehicle>
    <vehicle id="a7a359" type="car" depart="2471.80" departLane="best" departPos="random" departSpeed="max">
        <route edges="-l1.2 -l3.1 -l3.2 -l3.3"/>
    </vehicle>
    <vehicle id="a7a360" type="car" depart="2472.00" departLane="best" departPos="random" departSpeed="max">
        <route edges="l4.1 l4.2 l3.3"/>
    </vehicle>
    <vehicle id="a7a365" type="car" depart="2473.00" departLane="best" departPos="random" departSpeed="max">
        <route edges="l4.2 -l5"/>
    </vehicle>
    <vehicle id="a7a369" type="car" depart="2473.80" departLane="best" departPos="random" departSpeed="max">
        <route edges="l4.2 l3.3 l3.2 l3.1 -l2"/>
    </vehicle>
    <vehicle id="a7a372" type="emergency" depart="2474.40" departLane="best" departPos="random" departSpeed="max">
        <route edges="l3.2"/>
    </vehicle>
    <vehicle id="a7a373" type="car" depart="2474.60" departLane="best" departPos="random" departSpeed="max">
        <route edges="-l3.1 -l3.2"/>
    </vehicle>
    <vehicle id="a7a374" type="car" depart="2474.80" departLane="best" departPos="random" departSpeed="max">
        <route edges="l2.1 l2.2 -l3.1 -l3.2"/>
    </vehicle>
    <vehicle id="a7a377" type="motor" depart="2475.40" departLane="best" departPos="random" departSpeed="max">
        <route edges="-l3.2 -l3.3 -l5"/>
    </vehicle>
    <vehicle id="a7a384" type="emergency" depart="2476.80" departLane="best" departPos="random" departSpeed="max">
        <route edges="-l1.1 -l1.2 -l3.1"/>
    </vehicle>
    <vehicle id="a7a385" type="car" depart="2477.00" departLane="best" departPos="random" departSpeed="max">
        <route edges="-l1.2 -l3.1"/>
    </vehicle>
    <vehicle id="a7a388" type="car" depart="2477.60" departLane="best" departPos="random" departSpeed="max">
        <route edges="l3.2 l3.1"/>
    </vehicle>
    <vehicle id="a7a390" type="car" depart="2478.00" departLane="best" departPos="random" departSpeed="max">
        <route edges="-l1.2 -l3.1 -l3.2 -l3.3"/>
    </vehicle>
    <vehicle id="a7a393" type="motor" depart="2478.60" departLane="best" departPos="random" departSpeed="max">
        <route edges="l2.2 -l3.1 -l3.2 -l3.3 -l4"/>
    </vehicle>
    <vehicle id="a7a394" type="car" depart="2478.80" departLane="best" departPos="random" departSpeed="max">
        <route edges="l4.2 l3.3"/>
    </vehicle>
    <vehicle id="a7a397" type="motor" depart="2479.40" departLane="best" departPos="random" departSpeed="max">
        <route edges="-l1.2 -l3.1 -l3.2 -l3.3 -l5"/>
    </vehicle>
    <vehicle id="a7a404" type="emergency" depart="2480.80" departLane="best" departPos="random" departSpeed="max">
        <route edges="l3.2 l3.1"/>
    </vehicle>
    <vehicle id="a7a406" type="motor" depart="2481.20" departLane="best" departPos="random" departSpeed="max">
        <route edges="l5.1 l5.2"/>
    </vehicle>
    <vehicle id="a7a407" type="car" depart="2481.40" departLane="best" departPos="random" departSpeed="max">
        <route edges="-l1.1 -l1.2 -l3.1 -l3.2 -l3.3 -l4"/>
    </vehicle>
    <vehicle id="a7a414" type="car" depart="2482.80" departLane="best" departPos="random" departSpeed="max">
        <route edges="-l3.3 -l4"/>
    </vehicle>
    <vehicle id="a7a418" type="car" depart="2483.60" departLane="best" departPos="random" departSpeed="max">
        <route edges="l3.1 l1"/>
    </vehicle>
    <vehicle id="a7a420" type="motor" depart="2484.00" departLane="best" departPos="random" departSpeed="max">
        <route edges="l4.2 l3.3 l3.2 l3.1 l1"/>
    </vehicle>
    <vehicle id="a7a422" type="motor" depart="2484.40" departLane="best" departPos="random" departSpeed="max">
        <route edges="-l1.2 -l3.1 -l3.2 -l3.3 -l4"/>
    </vehicle>
    <vehicle id="a7a426" type="car" depart="2485.20" departLane="best" departPos="random" departSpeed="max">
        <route edges="-l3.1 -l3.2 -l3.3 -l4"/>
    </vehicle>
    <vehicle id="a7a428" type="motor" depart="2485.60" departLane="best" departPos="random" departSpeed="max">
        <route edges="l3.2 l3.1 -l2"/>
    </vehicle>
    <vehicle id="a7a429" type="car" depart="2485.80" departLane="best" departPos="random" departSpeed="max">
        <route edges="l3.2"/>
    </vehicle>
    <vehicle id="a7a431" type="car" depart="2486.20" departLane="best" departPos="random" departSpeed="max">
        <route edges="l2.1 l2.2 -l3.1 -l3.2 -l3.3"/>
    </vehicle>
    <vehicle id="a7a434" type="car" depart="2486.80" departLane="best" departPos="random" departSpeed="max">
        <route edges="l3.2 l3.1 l1"/>
    </vehicle>