<?xml version="1.0" encoding="UTF-8"?>

<!-- generated on Wed May  5 04:57:50 2021 by Eclipse SUMO duarouter Version 1.9.0
<configuration xmlns:xsi="http://www.w3.org/2001/XMLSchema-instance" xsi:noNamespaceSchemaLocation="http://sumo.dlr.de/xsd/duarouterConfiguration.xsd">

    <input>
        <net-file value="./sumo_files/monash_intersection/monash_intersection.net.xml"/>
        <additional-files value="./sumo_files/monash_intersection/monash_intersection.add.xml"/>
        <route-files value="./sumo_files/monash_intersection/trips.trips.xml"/>
    </input>

    <output>
        <output-file value="./sumo_files/monash_intersection/monash_intersection2.rou.xml"/>
        <vtype-output value="vtypeout.xml"/>
        <alternatives-output value="./sumo_files/monash_intersection/monash_intersection2.rou.alt.xml"/>
    </output>

    <time>
        <begin value="400.0"/>
        <end value="800.0"/>
    </time>

    <report>
        <no-warnings value="true"/>
        <ignore-errors value="true"/>
        <no-step-log value="true"/>
    </report>

</configuration>
-->

<routes xmlns:xsi="http://www.w3.org/2001/XMLSchema-instance" xsi:noNamespaceSchemaLocation="http://sumo.dlr.de/xsd/routes_file.xsd">
    <vehicle id="a2a0" type="motor" depart="400.00" departLane="best" departPos="random" departSpeed="max">
        <route edges="-l3.1 -l3.2"/>
    </vehicle>
    <vehicle id="a2a3" type="car" depart="400.60" departLane="best" departPos="random" departSpeed="max">
        <route edges="-l1.1 -l1.2 -l3.1 -l3.2 -l3.3 -l4"/>
    </vehicle>
    <vehicle id="a2a5" type="car" depart="401.00" departLane="best" departPos="random" departSpeed="max">
        <route edges="-l1.2 -l3.1 -l3.2"/>
    </vehicle>
    <vehicle id="a2a9" type="car" depart="401.80" departLane="best" departPos="random" departSpeed="max">
        <route edges="l3.1 l1"/>
    </vehicle>
    <vehicle id="a2a11" type="car" depart="402.20" departLane="best" departPos="random" departSpeed="max">
        <route edges="-l1.1 -l1.2 -l3.1 -l3.2"/>
    </vehicle>
    <vehicle id="a2a13" type="car" depart="402.60" departLane="best" departPos="random" departSpeed="max">
        <route edges="l2.2 -l3.1 -l3.2 -l3.3 -l5"/>
    </vehicle>
    <vehicle id="a2a14" type="car" depart="402.80" departLane="best" departPos="random" departSpeed="max">
        <route edges="l3.1 l1"/>
    </vehicle>
    <vehicle id="a2a17" type="motor" depart="403.40" departLane="best" departPos="random" departSpeed="max">
        <route edges="l3.1 -l2"/>
    </vehicle>
    <vehicle id="a2a18" type="car" depart="403.60" departLane="best" departPos="random" departSpeed="max">
        <route edges="-l1.1 -l1.2"/>
    </vehicle>
    <vehicle id="a2a20" type="car" depart="404.00" departLane="best" departPos="random" departSpeed="max">
        <route edges="l2.2"/>
    </vehicle>
    <vehicle id="a2a25" type="emergency" depart="405.00" departLane="best" departPos="random" departSpeed="max">
        <route edges="-l3.1 -l3.2 -l3.3 -l4"/>
    </vehicle>
    <vehicle id="a2a32" type="car" depart="406.40" departLane="best" departPos="random" departSpeed="max">
        <route edges="l3.1"/>
    </vehicle>
    <vehicle id="a2a36" type="car" depart="407.20" departLane="best" departPos="random" departSpeed="max">
        <route edges="l4.1 l4.2 l3.3 l3.2"/>
    </vehicle>
    <vehicle id="a2a40" type="car" depart="408.00" departLane="best" departPos="random" departSpeed="max">
        <route edges="-l3.1 -l3.2 -l3.3 -l4"/>
    </vehicle>
    <vehicle id="a2a43" type="car" depart="408.60" departLane="best" departPos="random" departSpeed="max">
        <route edges="-l1.1 -l1.2 -l3.1 -l3.2 -l3.3 -l4"/>
    </vehicle>
    <vehicle id="a2a47" type="emergency" depart="409.40" departLane="best" departPos="random" departSpeed="max">
        <route edges="-l1.2 -l3.1 -l3.2 -l3.3 -l5"/>
    </vehicle>
    <vehicle id="a2a48" type="car" depart="409.60" departLane="best" departPos="random" departSpeed="max">
        <route edges="l4.2 l3.3 l3.2"/>
    </vehicle>
    <vehicle id="a2a49" type="car" depart="409.80" departLane="best" departPos="random" departSpeed="max">
        <route edges="-l1.2 -l3.1 -l3.2 -l3.3"/>
    </vehicle>
    <vehicle id="a2a50" type="car" depart="410.00" departLane="best" departPos="random" departSpeed="max">
        <route edges="l2.1 l2.2 -l3.1 -l3.2 -l3.3"/>
    </vehicle>
    <vehicle id="a2a51" type="car" depart="410.20" departLane="best" departPos="random" departSpeed="max">
        <route edges="l2.1 l2.2 l1"/>
    </vehicle>
    <vehicle id="a2a52" type="car" depart="410.40" departLane="best" departPos="random" departSpeed="max">
        <route edges="-l1.1 -l1.2"/>
    </vehicle>
    <vehicle id="a2a56" type="car" depart="411.20" departLane="best" departPos="random" departSpeed="max">
        <route edges="-l3.2 -l3.3"/>
    </vehicle>
    <vehicle id="a2a57" type="car" depart="411.40" departLane="best" departPos="random" departSpeed="max">
        <route edges="l4.1 l4.2 l3.3"/>
    </vehicle>
    <vehicle id="a2a64" type="car" depart="412.80" departLane="best" departPos="random" departSpeed="max">
        <route edges="-l1.1 -l1.2"/>
    </vehicle>
    <vehicle id="a2a66" type="motor" depart="413.20" departLane="best" departPos="random" departSpeed="max">
        <route edges="-l1.1 -l1.2 -l3.1 -l3.2"/>
    </vehicle>
    <vehicle id="a2a70" type="car" depart="414.00" departLane="best" departPos="random" departSpeed="max">
        <route edges="l2.2 -l3.1 -l3.2 -l3.3"/>
    </vehicle>
    <vehicle id="a2a73" type="car" depart="414.60" departLane="best" departPos="random" departSpeed="max">
        <route edges="-l1.1 -l1.2 -l3.1 -l3.2 -l3.3"/>
    </vehicle>
    <vehicle id="a2a75" type="car" depart="415.00" departLane="best" departPos="random" departSpeed="max">
        <route edges="l3.3 l3.2 l3.1 l1"/>
    </vehicle>
    <vehicle id="a2a76" type="car" depart="415.20" departLane="best" departPos="random" departSpeed="max">
        <route edges="l3.3"/>
    </vehicle>
    <vehicle id="a2a84" type="car" depart="416.80" departLane="best" departPos="random" departSpeed="max">
        <route edges="l4.2"/>
    </vehicle>
    <vehicle id="a2a85" type="car" depart="417.00" departLane="best" departPos="random" departSpeed="max">
        <route edges="l2.2 -l3.1 -l3.2 -l3.3"/>
    </vehicle>
    <vehicle id="a2a87" type="emergency" depart="417.40" departLane="best" departPos="random" departSpeed="max">
        <route edges="l4.1 l4.2 l3.3 l3.2 l3.1"/>
    </vehicle>
    <vehicle id="a2a89" type="car" depart="417.80" departLane="best" departPos="random" departSpeed="max">
        <route edges="-l1.1 -l1.2 -l2"/>
    </vehicle>
    <vehicle id="a2a90" type="car" depart="418.00" departLane="best" departPos="random" departSpeed="max">
        <route edges="-l3.3 -l4"/>
    </vehicle>
    <vehicle id="a2a91" type="motor" depart="418.20" departLane="best" departPos="random" departSpeed="max">
        <route edges="-l3.1 -l3.2 -l3.3 -l4"/>
    </vehicle>
    <vehicle id="a2a99" type="car" depart="419.80" departLane="best" departPos="random" departSpeed="max">
        <route edges="l2.2 -l3.1 -l3.2"/>
    </vehicle>
    <vehicle id="a2a100" type="car" depart="420.00" departLane="best" departPos="random" departSpeed="max">
        <route edges="l2.2 -l3.1"/>
    </vehicle>
    <vehicle id="a2a101" type="car" depart="420.20" departLane="best" departPos="random" departSpeed="max">
        <route edges="-l1.2 -l2"/>
    </vehicle>
    <vehicle id="a2a103" type="car" depart="420.60" departLane="best" departPos="random" departSpeed="max">
        <route edges="-l3.1 -l3.2 -l3.3"/>
    </vehicle>
    <vehicle id="a2a105" type="car" depart="421.00" departLane="best" departPos="random" departSpeed="max">
        <route edges="-l3.1 -l3.2"/>
    </vehicle>
    <vehicle id="a2a107" type="car" depart="421.40" departLane="best" departPos="random" departSpeed="max">
        <route edges="l5.1 l5.2"/>
    </vehicle>
    <vehicle id="a2a108" type="car" depart="421.60" departLane="best" departPos="random" departSpeed="max">
        <route edges="-l3.3"/>
    </vehicle>
    <vehicle id="a2a109" type="car" depart="421.80" departLane="best" departPos="random" departSpeed="max">
        <route edges="-l3.2"/>
    </vehicle>
    <vehicle id="a2a111" type="car" depart="422.20" departLane="best" departPos="random" departSpeed="max">
        <route edges="l3.2 l3.1"/>
    </vehicle>
    <vehicle id="a2a115" type="car" depart="423.00" departLane="best" departPos="random" departSpeed="max">
        <route edges="l4.2 -l5"/>
    </vehicle>
    <vehicle id="a2a117" type="car" depart="423.40" departLane="best" departPos="random" departSpeed="max">
        <route edges="-l1.1 -l1.2 -l3.1 -l3.2 -l3.3 -l4"/>
    </vehicle>
    <vehicle id="a2a118" type="motor" depart="423.60" departLane="best" departPos="random" departSpeed="max">
        <route edges="-l1.1 -l1.2 -l3.1 -l3.2"/>
    </vehicle>
    <vehicle id="a2a121" type="car" depart="424.20" departLane="best" departPos="random" departSpeed="max">
        <route edges="l2.1 l2.2 -l3.1"/>
    </vehicle>
    <vehicle id="a2a124" type="motor" depart="424.80" departLane="best" departPos="random" departSpeed="max">
        <route edges="-l3.1 -l3.2 -l3.3 -l4"/>
    </vehicle>
    <vehicle id="a2a126" type="car" depart="425.20" departLane="best" departPos="random" departSpeed="max">
        <route edges="l4.2 l3.3 l3.2"/>
    </vehicle>
    <vehicle id="a2a130" type="car" depart="426.00" departLane="best" departPos="random" departSpeed="max">
        <route edges="l4.2 l3.3 l3.2 l3.1"/>
    </vehicle>
    <vehicle id="a2a134" type="car" depart="426.80" departLane="best" departPos="random" departSpeed="max">
        <route edges="-l3.2 -l3.3 -l4"/>
    </vehicle>
    <vehicle id="a2a135" type="car" depart="427.00" departLane="best" departPos="random" departSpeed="max">
        <route edges="l3.1 l1"/>
    </vehicle>
    <vehicle id="a2a136" type="car" depart="427.20" departLane="best" departPos="random" departSpeed="max">
        <route edges="l4.1 l4.2 l3.3"/>
    </vehicle>
    <vehicle id="a2a138" type="motor" depart="427.60" departLane="best" departPos="random" departSpeed="max">
        <route edges="l4.2"/>
    </vehicle>
    <vehicle id="a2a140" type="emergency" depart="428.00" departLane="best" departPos="random" departSpeed="max">
        <route edges="-l3.2 -l3.3 -l5"/>
    </vehicle>
    <vehicle id="a2a141" type="motor" depart="428.20" departLane="best" departPos="random" departSpeed="max">
        <route edges="-l1.2 -l3.1 -l3.2 -l3.3 -l4"/>
    </vehicle>
    <vehicle id="a2a153" type="car" depart="430.60" departLane="best" departPos="random" departSpeed="max">
        <route edges="l3.3"/>
    </vehicle>
    <vehicle id="a2a154" type="car" depart="430.80" departLane="best" departPos="random" departSpeed="max">
        <route edges="-l3.2 -l3.3 -l4"/>
    </vehicle>
    <vehicle id="a2a155" type="motor" depart="431.00" departLane="best" departPos="random" departSpeed="max">
        <route edges="-l1.1 -l1.2"/>
    </vehicle>
    <vehicle id="a2a158" type="motor" depart="431.60" departLane="best" departPos="random" departSpeed="max">
        <route edges="-l1.1 -l1.2 -l3.1"/>
    </vehicle>
    <vehicle id="a2a160" type="car" depart="432.00" departLane="best" departPos="random" departSpeed="max">
        <route edges="-l1.1 -l1.2 -l3.1 -l3.2"/>
    </vehicle>
    <vehicle id="a2a161" type="motor" depart="432.20" departLane="best" departPos="random" departSpeed="max">
        <route edges="-l1.1 -l1.2 -l3.1 -l3.2 -l3.3 -l4"/>
    </vehicle>
    <vehicle id="a2a164" type="motor" depart="432.80" departLane="best" departPos="random" departSpeed="max">
        <route edges="-l3.1"/>
    </vehicle>
    <vehicle id="a2a165" type="car" depart="433.00" departLane="best" departPos="random" departSpeed="max">
        <route edges="-l3.3"/>
    </vehicle>
    <vehicle id="a2a166" type="motor" depart="433.20" departLane="best" departPos="random" departSpeed="max">
        <route edges="l5.2 l3.3 l3.2"/>
    </vehicle>
    <vehicle id="a2a167" type="car" depart="433.40" departLane="best" departPos="random" departSpeed="max">
        <route edges="-l1.1 -l1.2"/>
    </vehicle>
    <vehicle id="a2a171" type="car" depart="434.20" departLane="best" departPos="random" departSpeed="max">
        <route edges="-l1.2 -l3.1 -l3.2 -l3.3 -l4"/>
    </vehicle>
    <vehicle id="a2a172" type="car" depart="434.40" departLane="best" departPos="random" departSpeed="max">
        <route edges="-l3.1 -l3.2 -l3.3"/>
    </vehicle>
    <vehicle id="a2a173" type="car" depart="434.60" departLane="best" departPos="random" departSpeed="max">
        <route edges="-l1.1 -l1.2 -l2"/>
    </vehicle>
    <vehicle id="a2a174" type="car" depart="434.80" departLane="best" departPos="random" departSpeed="max">
        <route edges="l5.1 l5.2 l3.3 l3.2 l3.1"/>
    </vehicle>
    <vehicle id="a2a175" type="car" depart="435.00" departLane="best" departPos="random" departSpeed="max">
        <route edges="-l1.1 -l1.2 -l3.1 -l3.2 -l3.3 -l5"/>
    </vehicle>
    <vehicle id="a2a177" type="car" depart="435.40" departLane="best" departPos="random" departSpeed="max">
        <route edges="-l3.1 -l3.2 -l3.3 -l4"/>
    </vehicle>
    <vehicle id="a2a178" type="emergency" depart="435.60" departLane="best" departPos="random" departSpeed="max">
        <route edges="l3.3 l3.2"/>
    </vehicle>
    <vehicle id="a2a181" type="car" depart="436.20" departLane="best" departPos="random" departSpeed="max">
        <route edges="l3.1 l1"/>
    </vehicle>
    <vehicle id="a2a183" type="car" depart="436.60" departLane="best" departPos="random" departSpeed="max">
        <route edges="-l1.2 -l3.1 -l3.2 -l3.3 -l4"/>
    </vehicle>
    <vehicle id="a2a184" type="car" depart="436.80" departLane="best" departPos="random" departSpeed="max">
        <route edges="-l3.1 -l3.2"/>
    </vehicle>
    <vehicle id="a2a185" type="car" depart="437.00" departLane="best" departPos="random" departSpeed="max">
        <route edges="l4.1 l4.2 l3.3"/>
    </vehicle>
    <vehicle id="a2a188" type="motor" depart="437.60" departLane="best" departPos="random" departSpeed="max">
        <route edges="l2.2 -l3.1 -l3.2 -l3.3 -l4"/>
    </vehicle>
    <vehicle id="a2a189" type="car" depart="437.80" departLane="best" departPos="random" departSpeed="max">
        <route edges="l2.1 l2.2"/>
    </vehicle>
    <vehicle id="a2a190" type="car" depart="438.00" departLane="best" departPos="random" departSpeed="max">
        <route edges="l3.3 l3.2 l3.1 -l2"/>
    </vehicle>
    <vehicle id="a2a192" type="car" depart="438.40" departLane="best" departPos="random" departSpeed="max">
        <route edges="l4.1 l4.2 l3.3 l3.2 l3.1 -l2"/>
    </vehicle>
    <vehicle id="a2a197" type="motor" depart="439.40" departLane="best" departPos="random" departSpeed="max">
        <route edges="l4.2"/>
    </vehicle>
    <vehicle id="a2a202" type="car" depart="440.40" departLane="best" departPos="random" departSpeed="max">
        <route edges="l4.2 l3.3 l3.2 l3.1 -l2"/>
    </vehicle>
    <vehicle id="a2a204" type="car" depart="440.80" departLane="best" departPos="random" departSpeed="max">
        <route edges="l4.2 l3.3 l3.2"/>
    </vehicle>
    <vehicle id="a2a208" type="car" depart="441.60" departLane="best" departPos="random" departSpeed="max">
        <route edges="-l1.2"/>
    </vehicle>
    <vehicle id="a2a210" type="car" depart="442.00" departLane="best" departPos="random" departSpeed="max">
        <route edges="-l1.1 -l1.2 -l3.1"/>
    </vehicle>
    <vehicle id="a2a211" type="car" depart="442.20" departLane="best" departPos="random" departSpeed="max">
        <route edges="-l1.1 -l1.2 -l3.1 -l3.2"/>
    </vehicle>
    <vehicle id="a2a215" type="car" depart="443.00" departLane="best" departPos="random" departSpeed="max">
        <route edges="l2.2"/>
    </vehicle>
    <vehicle id="a2a230" type="car" depart="446.00" departLane="best" departPos="random" departSpeed="max">
        <route edges="l4.2 l3.3 l3.2 l3.1 l1"/>
    </vehicle>
    <vehicle id="a2a231" type="car" depart="446.20" departLane="best" departPos="random" departSpeed="max">
        <route edges="-l3.1 -l3.2 -l3.3 -l4"/>
    </vehicle>
    <vehicle id="a2a234" type="car" depart="446.80" departLane="best" departPos="random" departSpeed="max">
        <route edges="-l1.2"/>
    </vehicle>
    <vehicle id="a2a235" type="car" depart="447.00" departLane="best" departPos="random" departSpeed="max">
        <route edges="l2.2 l1"/>
    </vehicle>
    <vehicle id="a2a238" type="motor" depart="447.60" departLane="best" departPos="random" departSpeed="max">
        <route edges="l2.2 -l3.1 -l3.2 -l3.3 -l4"/>
    </vehicle>
    <vehicle id="a2a241" type="car" depart="448.20" departLane="best" departPos="random" departSpeed="max">
        <route edges="l4.2 l3.3 l3.2 l3.1 l1"/>
    </vehicle>
    <vehicle id="a2a242" type="car" depart="448.40" departLane="best" departPos="random" departSpeed="max">
        <route edges="l4.1 l4.2 l3.3"/>
    </vehicle>
    <vehicle id="a2a245" type="car" depart="449.00" departLane="best" departPos="random" departSpeed="max">
        <route edges="l5.1 l5.2 l3.3 l3.2 l3.1 -l2"/>
    </vehicle>
    <vehicle id="a2a246" type="motor" depart="449.20" departLane="best" departPos="random" departSpeed="max">
        <route edges="l2.1 l2.2 l1"/>
    </vehicle>
    <vehicle id="a2a250" type="car" depart="450.00" departLane="best" departPos="random" departSpeed="max">
        <route edges="l4.1 l4.2 l3.3 l3.2"/>
    </vehicle>
    <vehicle id="a2a252" type="car" depart="450.40" departLane="best" departPos="random" departSpeed="max">
        <route edges="l3.1 -l2"/>
    </vehicle>
    <vehicle id="a2a254" type="car" depart="450.80" departLane="best" departPos="random" departSpeed="max">
        <route edges="-l1.2 -l3.1 -l3.2"/>
    </vehicle>
    <vehicle id="a2a255" type="car" depart="451.00" departLane="best" departPos="random" departSpeed="max">
        <route edges="-l1.1 -l1.2 -l3.1"/>
    </vehicle>
    <vehicle id="a2a257" type="car" depart="451.40" departLane="best" departPos="random" departSpeed="max">
        <route edges="l3.1"/>
    </vehicle>
    <vehicle id="a2a259" type="car" depart="451.80" departLane="best" departPos="random" departSpeed="max">
        <route edges="l4.2 -l5"/>
    </vehicle>
    <vehicle id="a2a261" type="motor" depart="452.20" departLane="best" departPos="random" departSpeed="max">
        <route edges="l4.2"/>
    </vehicle>
    <vehicle id="a2a264" type="car" depart="452.80" departLane="best" departPos="random" departSpeed="max">
        <route edges="l3.1"/>
    </vehicle>
    <vehicle id="a2a265" type="car" depart="453.00" departLane="best" departPos="random" departSpeed="max">
        <route edges="-l1.2 -l3.1"/>
    </vehicle>
    <vehicle id="a2a270" type="car" depart="454.00" departLane="best" departPos="random" departSpeed="max">
        <route edges="l2.2 -l3.1 -l3.2 -l3.3 -l5"/>
    </vehicle>
    <vehicle id="a2a274" type="car" depart="454.80" departLane="best" departPos="random" departSpeed="max">
        <route edges="l2.2 -l3.1 -l3.2 -l3.3"/>
    </vehicle>
    <vehicle id="a2a279" type="car" depart="455.80" departLane="best" departPos="random" departSpeed="max">
        <route edges="l3.2 l3.1"/>
    </vehicle>
    <vehicle id="a2a283" type="car" depart="456.60" departLane="best" departPos="random" departSpeed="max">
        <route edges="-l1.1 -l1.2 -l3.1 -l3.2"/>
    </vehicle>
    <vehicle id="a2a287" type="car" depart="457.40" departLane="best" departPos="random" departSpeed="max">
        <route edges="l5.1 l5.2 l3.3 l3.2 l3.1 -l2"/>
    </vehicle>
    <vehicle id="a2a288" type="motor" depart="457.60" departLane="best" departPos="random" departSpeed="max">
        <route edges="-l3.2"/>
    </vehicle>
    <vehicle id="a2a293" type="car" depart="458.60" departLane="best" departPos="random" departSpeed="max">
        <route edges="l4.2 l3.3 l3.2 l3.1"/>
    </vehicle>
    <vehicle id="a2a295" type="motor" depart="459.00" departLane="best" departPos="random" departSpeed="max">
        <route edges="-l3.3"/>
    </vehicle>
    <vehicle id="a2a300" type="motor" depart="460.00" departLane="best" departPos="random" departSpeed="max">
        <route edges="l4.2"/>
    </vehicle>
    <vehicle id="a2a301" type="car" depart="460.20" departLane="best" departPos="random" departSpeed="max">
        <route edges="-l1.1 -l1.2"/>
    </vehicle>
    <vehicle id="a2a304" type="car" depart="460.80" departLane="best" departPos="random" departSpeed="max">
        <route edges="-l1.1 -l1.2 -l3.1 -l3.2"/>
    </vehicle>
    <vehicle id="a2a307" type="car" depart="461.40" departLane="best" departPos="random" departSpeed="max">
        <route edges="l3.2 l3.1 -l2"/>
    </vehicle>
    <vehicle id="a2a311" type="car" depart="462.20" departLane="best" departPos="random" departSpeed="max">
        <route edges="l2.1 l2.2 -l3.1 -l3.2 -l3.3 -l4"/>
    </vehicle>
    <vehicle id="a2a313" type="motor" depart="462.60" departLane="best" departPos="random" departSpeed="max">
        <route edges="-l1.2 -l2"/>
    </vehicle>
    <vehicle id="a2a314" type="car" depart="462.80" departLane="best" departPos="random" departSpeed="max">
        <route edges="l4.1 l4.2 l3.3 l3.2 l3.1"/>
    </vehicle>
    <vehicle id="a2a315" type="car" depart="463.00" departLane="best" departPos="random" departSpeed="max">
        <route edges="-l3.1"/>
    </vehicle>
    <vehicle id="a2a316" type="car" depart="463.20" departLane="best" departPos="random" departSpeed="max">
        <route edges="-l1.1 -l1.2 -l3.1 -l3.2 -l3.3"/>
    </vehicle>
    <vehicle id="a2a319" type="car" depart="463.80" departLane="best" departPos="random" departSpeed="max">
        <route edges="l2.2 -l3.1 -l3.2"/>
    </vehicle>
    <vehicle id="a2a321" type="car" depart="464.20" departLane="best" departPos="random" departSpeed="max">
        <route edges="-l3.3 -l4"/>
    </vehicle>
    <vehicle id="a2a325" type="motor" depart="465.00" departLane="best" departPos="random" departSpeed="max">
        <route edges="-l1.2 -l3.1 -l3.2 -l3.3 -l4"/>
    </vehicle>
    <vehicle id="a2a326" type="car" depart="465.20" departLane="best" departPos="random" departSpeed="max">
        <route edges="l2.1 l2.2 -l3.1 -l3.2"/>
    </vehicle>
    <vehicle id="a2a327" type="car" depart="465.40" departLane="best" departPos="random" departSpeed="max">
        <route edges="-l1.2 -l3.1 -l3.2 -l3.3"/>
    </vehicle>
    <vehicle id="a2a328" type="car" depart="465.60" departLane="best" departPos="random" departSpeed="max">
        <route edges="l5.1 l5.2 l3.3"/>
    </vehicle>
    <vehicle id="a2a330" type="emergency" depart="466.00" departLane="best" departPos="random" departSpeed="max">
        <route edges="l4.1 l4.2"/>
    </vehicle>
    <vehicle id="a2a332" type="car" depart="466.40" departLane="best" departPos="random" departSpeed="max">
        <route edges="-l3.2 -l3.3 -l4"/>
    </vehicle>
    <vehicle id="a2a333" type="car" depart="466.60" departLane="best" departPos="random" departSpeed="max">
        <route edges="-l1.2 -l3.1 -l3.2 -l3.3"/>
    </vehicle>
    <vehicle id="a2a337" type="car" depart="467.40" departLane="best" departPos="random" departSpeed="max">
        <route edges="-l3.1 -l3.2 -l3.3 -l5"/>
    </vehicle>
    <vehicle id="a2a338" type="emergency" depart="467.60" departLane="best" departPos="random" departSpeed="max">
        <route edges="l2.2"/>
    </vehicle>
    <vehicle id="a2a340" type="motor" depart="468.00" departLane="best" departPos="random" departSpeed="max">
        <route edges="l4.2 l3.3 l3.2 l3.1"/>
    </vehicle>
    <vehicle id="a2a342" type="car" depart="468.40" departLane="best" departPos="random" departSpeed="max">
        <route edges="l5.1 l5.2 l3.3"/>
    </vehicle>
    <vehicle id="a2a345" type="car" depart="469.00" departLane="best" departPos="random" departSpeed="max">
        <route edges="-l3.2 -l3.3"/>
    </vehicle>
    <vehicle id="a2a348" type="motor" depart="469.60" departLane="best" departPos="random" departSpeed="max">
        <route edges="l4.1 l4.2 l3.3 l3.2"/>
    </vehicle>
    <vehicle id="a2a349" type="car" depart="469.80" departLane="best" departPos="random" departSpeed="max">
        <route edges="l4.1 l4.2 l3.3 l3.2 l3.1 -l2"/>
    </vehicle>
    <vehicle id="a2a350" type="car" depart="470.00" departLane="best" departPos="random" departSpeed="max">
        <route edges="l4.1 l4.2 l3.3"/>
    </vehicle>
    <vehicle id="a2a355" type="car" depart="471.00" departLane="best" departPos="random" departSpeed="max">
        <route edges="-l3.1 -l3.2 -l3.3 -l5"/>
    </vehicle>
    <vehicle id="a2a356" type="motor" depart="471.20" departLane="best" departPos="random" departSpeed="max">
        <route edges="-l3.2"/>
    </vehicle>
    <vehicle id="a2a358" type="car" depart="471.60" departLane="best" departPos="random" departSpeed="max">
        <route edges="l4.1 l4.2 l3.3 l3.2 l3.1 -l2"/>
    </vehicle>
    <vehicle id="a2a360" type="car" depart="472.00" departLane="best" departPos="random" departSpeed="max">
        <route edges="l3.3 l3.2 l3.1"/>
    </vehicle>
    <vehicle id="a2a363" type="motor" depart="472.60" departLane="best" departPos="random" departSpeed="max">
        <route edges="l2.1 l2.2 l1"/>
    </vehicle>
    <vehicle id="a2a364" type="car" depart="472.80" departLane="best" departPos="random" departSpeed="max">
        <route edges="-l3.3"/>
    </vehicle>
    <vehicle id="a2a365" type="car" depart="473.00" departLane="best" departPos="random" departSpeed="max">
        <route edges="l2.1 l2.2"/>
    </vehicle>
    <vehicle id="a2a368" type="car" depart="473.60" departLane="best" departPos="random" departSpeed="max">
        <route edges="l4.1 l4.2 l3.3 l3.2"/>
    </vehicle>
    <vehicle id="a2a369" type="car" depart="473.80" departLane="best" departPos="random" departSpeed="max">
        <route edges="l4.2 l3.3"/>
    </vehicle>
    <vehicle id="a2a370" type="car" depart="474.00" departLane="best" departPos="random" departSpeed="max">
        <route edges="l3.1"/>
    </vehicle>
    <vehicle id="a2a371" type="car" depart="474.20" departLane="best" departPos="random" departSpeed="max">
        <route edges="l2.2 -l3.1 -l3.2 -l3.3 -l4"/>
    </vehicle>
    <vehicle id="a2a372" type="emergency" depart="474.40" departLane="best" departPos="random" departSpeed="max">
        <route edges="-l1.1 -l1.2 -l2"/>
    </vehicle>
    <vehicle id="a2a378" type="car" depart="475.60" departLane="best" departPos="random" departSpeed="max">
        <route edges="-l1.2 -l3.1"/>
    </vehicle>
    <vehicle id="a2a381" type="car" depart="476.20" departLane="best" departPos="random" departSpeed="max">
        <route edges="-l1.1 -l1.2 -l3.1 -l3.2"/>
    </vehicle>
    <vehicle id="a2a382" type="car" depart="476.40" departLane="best" departPos="random" departSpeed="max">
        <route edges="l4.2 -l5"/>
    </vehicle>
    <vehicle id="a2a383" type="car" depart="476.60" departLane="best" departPos="random" departSpeed="max">
        <route edges="l4.1 l4.2 l3.3"/>
    </vehicle>
    <vehicle id="a2a384" type="emergency" depart="476.80" departLane="best" departPos="random" departSpeed="max">
        <route edges="l4.1 l4.2 l3.3 l3.2"/>
    </vehicle>
    <vehicle id="a2a386" type="car" depart="477.20" departLane="best" departPos="random" departSpeed="max">
        <route edges="-l1.1 -l1.2"/>
    </vehicle>
    <vehicle id="a2a388" type="car" depart="477.60" departLane="best" departPos="random" departSpeed="max">
        <route edges="-l3.1 -l3.2 -l3.3 -l4"/>
    </vehicle>
    <vehicle id="a2a390" type="car" depart="478.00" departLane="best" departPos="random" departSpeed="max">
        <route edges="l5.2 -l4"/>
    </vehicle>
    <vehicle id="a2a397" type="motor" depart="479.40" departLane="best" departPos="random" departSpeed="max">
        <route edges="l3.2 l3.1"/>
    </vehicle>
    <vehicle id="a2a398" type="motor" depart="479.60" departLane="best" departPos="random" departSpeed="max">
        <route edges="l2.1 l2.2 l1"/>
    </vehicle>
    <vehicle id="a2a400" type="car" depart="480.00" departLane="best" departPos="random" departSpeed="max">
        <route edges="-l1.1 -l1.2 -l3.1 -l3.2"/>
    </vehicle>
    <vehicle id="a2a407" type="car" depart="481.40" departLane="best" departPos="random" departSpeed="max">
        <route edges="l2.1 l2.2 -l3.1 -l3.2 -l3.3 -l5"/>
    </vehicle>
    <vehicle id="a2a410" type="motor" depart="482.00" departLane="best" departPos="random" departSpeed="max">
        <route edges="-l3.2"/>
    </vehicle>
    <vehicle id="a2a415" type="car" depart="483.00" departLane="best" departPos="random" departSpeed="max">
        <route edges="-l3.3"/>
    </vehicle>
    <vehicle id="a2a416" type="motor" depart="483.20" departLane="best" departPos="random" departSpeed="max">
        <route edges="l3.2"/>
    </vehicle>
    <vehicle id="a2a417" type="motor" depart="483.40" departLane="best" departPos="random" departSpeed="max">
        <route edges="-l1.2 -l2"/>
    </vehicle>
    <vehicle id="a2a421" type="car" depart="484.20" departLane="best" departPos="random" departSpeed="max">
        <route edges="-l3.1 -l3.2"/>
    </vehicle>
    <vehicle id="a2a424" type="car" depart="484.80" departLane="best" departPos="random" departSpeed="max">
        <route edges="l3.1"/>
    </vehicle>
    <vehicle id="a2a425" type="car" depart="485.00" departLane="best" departPos="random" departSpeed="max">
        <route edges="-l1.2"/>
    </vehicle>
    <vehicle id="a2a428" type="motor" depart="485.60" departLane="best" departPos="random" departSpeed="max">
        <route edges="-l1.2 -l2"/>
    </vehicle>
    <vehicle id="a2a446" type="car" depart="489.20" departLane="best" departPos="random" departSpeed="max">
        <route edges="l3.2"/>
    </vehicle>
    <vehicle id="a2a447" type="emergency" depart="489.40" departLane="best" departPos="random" departSpeed="max">