<?xml version="1.0" encoding="UTF-8"?>
<!-- generated on 2021-05-05 04:57:52.088518 by $Id$ UNKNOWN
  options: -o ./sumo_files/monash_intersection/trips.trips.xml -n ./sumo_files/monash_intersection/monash_intersection.net.xml -a ./sumo_files/monash_intersection/monash_intersection.add.xml <doubleminus>trip-attribute=type="dist0" departLane="best" departSpeed="max" departPos="random" <doubleminus>route-file ./sumo_files/monash_intersection/monash_intersection9.rou.xml -L <doubleminus>random <doubleminus>vtype-output vtypeout.xml <doubleminus>prefix a9a -p 0.2 -b 3200.0 -e 3600.0
-->
<routes xmlns:xsi="http://www.w3.org/2001/XMLSchema-instance" xsi:noNamespaceSchemaLocation="http://sumo.dlr.de/xsd/routes_file.xsd">
    <trip id="a9a0" depart="3200.00" from="l3.2" to="-l5" type="dist0" departLane="best" departSpeed="max" departPos="random"/>
    <trip id="a9a1" depart="3200.20" from="l3.1" to="l3.2" type="dist0" departLane="best" departSpeed="max" departPos="random"/>
    <trip id="a9a2" depart="3200.40" from="l2.2" to="-l4" type="dist0" departLane="best" departSpeed="max" departPos="random"/>
    <trip id="a9a3" depart="3200.60" from="l3.2" to="-l2" type="dist0" departLane="best" departSpeed="max" departPos="random"/>
    <trip id="a9a4" depart="3200.80" from="-l1.2" to="l1" type="dist0" departLane="best" departSpeed="max" departPos="random"/>
    <trip id="a9a5" depart="3201.00" from="l4.2" to="l3.1" type="dist0" departLane="best" departSpeed="max" departPos="random"/>
    <trip id="a9a6" depart="3201.20" from="l4.2" to="l1" type="dist0" departLane="best" departSpeed="max" departPos="random"/>
    <trip id="a9a7" depart="3201.40" from="l3.1" to="-l3.1" type="dist0" departLane="best" departSpeed="max" departPos="random"/>
    <trip id="a9a8" depart="3201.60" from="l2.1" to="l3.1" type="dist0" departLane="best" departSpeed="max" departPos="random"/>
    <trip id="a9a9" depart="3201.80" from="l2.1" to="l3.2" type="dist0" departLane="best" departSpeed="max" departPos="random"/>
    <trip id="a9a10" depart="3202.00" from="-l3.3" to="-l4" type="dist0" departLane="best" departSpeed="max" departPos="random"/>
    <trip id="a9a11" depart="3202.20" from="l3.1" to="-l1.2" type="dist0" departLane="best" departSpeed="max" departPos="random"/>
    <trip id="a9a12" depart="3202.40" from="l4.1" to="l3.1" type="dist0" departLane="best" departSpeed="max" departPos="random"/>
    <trip id="a9a13" depart="3202.60" from="l3.1" to="l3.2" type="dist0" departLane="best" departSpeed="max" departPos="random"/>
    <trip id="a9a14" depart="3202.80" from="-l3.2" to="l3.1" type="dist0" departLane="best" departSpeed="max" departPos="random"/>
    <trip id="a9a15" depart="3203.00" from="l4.2" to="-l2" type="dist0" departLane="best" departSpeed="max" departPos="random"/>
    <trip id="a9a16" depart="3203.20" from="-l3.2" to="l4.2" type="dist0" departLane="best" departSpeed="max" departPos="random"/>
    <trip id="a9a17" depart="3203.40" from="-l3.2" to="-l4" type="dist0" departLane="best" departSpeed="max" departPos="random"/>
    <trip id="a9a18" depart="3203.60" from="l3.1" to="-l5" type="dist0" departLane="best" departSpeed="max" departPos="random"/>
    <trip id="a9a19" depart="3203.80" from="-l1.1" to="l3.1" type="dist0" departLane="best" departSpeed="max" departPos="random"/>
    <trip id="a9a20" depart="3204.00" from="l4.1" to="-l3.2" type="dist0" departLane="best" departSpeed="max" departPos="random"/>
    <trip id="a9a21" depart="3204.20" from="l3.1" to="-l3.3" type="dist0" departLane="best" departSpeed="max" departPos="random"/>
    <trip id="a9a22" depart="3204.40" from="-l3.2" to="-l1.2" type="dist0" departLane="best" departSpeed="max" departPos="random"/>
    <trip id="a9a23" depart="3204.60" from="-l3.3" to="l3.3" type="dist0" departLane="best" departSpeed="max" departPos="random"/>
    <trip id="a9a24" depart="3204.80" from="-l1.1" to="-l2" type="dist0" departLane="best" departSpeed="max" departPos="random"/>
    <trip id="a9a25" depart="3205.00" from="-l3.1" to="l2.2" type="dist0" departLane="best" departSpeed="max" departPos="random"/>
    <trip id="a9a26" depart="3205.20" from="l2.2" to="-l1.2" type="dist0" departLane="best" departSpeed="max" departPos="random"/>
    <trip id="a9a27" depart="3205.40" from="-l1.1" to="-l3.2" type="dist0" departLane="best" departSpeed="max" departPos="random"/>
    <trip id="a9a28" depart="3205.60" from="-l3.3" to="-l4" type="dist0" departLane="best" departSpeed="max" departPos="random"/>
    <trip id="a9a29" depart="3205.80" from="-l1.1" to="l4.2" type="dist0" departLane="best" departSpeed="max" departPos="random"/>
    <trip id="a9a30" depart="3206.00" from="-l3.3" to="l2.2" type="dist0" departLane="best" departSpeed="max" departPos="random"/>
    <trip id="a9a31" depart="3206.20" from="-l1.1" to="l4.2" type="dist0" departLane="best" departSpeed="max" departPos="random"/>
    <trip id="a9a32" depart="3206.40" from="-l3.3" to="-l3.1" type="dist0" departLane="best" departSpeed="max" departPos="random"/>
    <trip id="a9a33" depart="3206.60" from="-l3.3" to="-l3.3" type="dist0" departLane="best" departSpeed="max" departPos="random"/>
    <trip id="a9a34" depart="3206.80" from="-l3.3" to="-l1.2" type="dist0" departLane="best" departSpeed="max" departPos="random"/>
    <trip id="a9a35" depart="3207.00" from="l4.2" to="l2.2" type="dist0" departLane="best" departSpeed="max" departPos="random"/>
    <trip id="a9a36" depart="3207.20" from="l3.2" to="l4.2" type="dist0" departLane="best" departSpeed="max" departPos="random"/>
    <trip id="a9a37" depart="3207.40" from="-l3.2" to="-l1.2" type="dist0" departLane="best" departSpeed="max" departPos="random"/>
    <trip id="a9a38" depart="3207.60" from="l2.1" to="-l4" type="dist0" departLane="best" departSpeed="max" departPos="random"/>
    <trip id="a9a39" depart="3207.80" from="l4.2" to="-l1.2" type="dist0" departLane="best" departSpeed="max" departPos="random"/>
    <trip id="a9a40" depart="3208.00" from="l3.1" to="l4.2" type="dist0" departLane="best" departSpeed="max" departPos="random"/>
    <trip id="a9a41" depart="3208.20" from="-l3.1" to="-l3.3" type="dist0" departLane="best" departSpeed="max" departPos="random"/>
    <trip id="a9a42" depart="3208.40" from="-l1.2" to="-l2" type="dist0" departLane="best" departSpeed="max" departPos="random"/>
    <trip id="a9a43" depart="3208.60" from="-l1.1" to="l3.1" type="dist0" departLane="best" departSpeed="max" departPos="random"/>
    <trip id="a9a44" depart="3208.80" from="-l1.2" to="-l1.2" type="dist0" departLane="best" departSpeed="max" departPos="random"/>
    <trip id="a9a45" depart="3209.00" from="-l1.2" to="-l4" type="dist0" departLane="best" departSpeed="max" departPos="random"/>
    <trip id="a9a46" depart="3209.20" from="l3.2" to="l3.3" type="dist0" departLane="best" departSpeed="max" departPos="random"/>
    <trip id="a9a47" depart="3209.40" from="-l1.1" to="l3.1" type="dist0" departLane="best" departSpeed="max" departPos="random"/>
    <trip id="a9a48" depart="3209.60" from="-l1.2" to="-l3.2" type="dist0" departLane="best" departSpeed="max" departPos="random"/>
    <trip id="a9a49" depart="3209.80" from="l2.1" to="l3.3" type="dist0" departLane="best" departSpeed="max" departPos="random"/>
    <trip id="a9a50" depart="3210.00" from="-l3.3" to="-l5" type="dist0" departLane="best" departSpeed="max" departPos="random"/>
    <trip id="a9a51" depart="3210.20" from="l4.2" to="-l2" type="dist0" departLane="best" departSpeed="max" departPos="random"/>
    <trip id="a9a52" depart="3210.40" from="-l3.1" to="-l3.3" type="dist0" departLane="best" departSpeed="max" departPos="random"/>
    <trip id="a9a53" depart="3210.60" from="l5.2" to="-l3.3" type="dist0" departLane="best" departSpeed="max" departPos="random"/>
    <trip id="a9a54" depart="3210.80" from="l2.1" to="l1" type="dist0" departLane="best" departSpeed="max" departPos="random"/>
    <trip id="a9a55" depart="3211.00" from="-l1.1" to="-l3.3" type="dist0" departLane="best" departSpeed="max" departPos="random"/>
    <trip id="a9a56" depart="3211.20" from="-l3.2" to="-l3.3" type="dist0" departLane="best" departSpeed="max" departPos="random"/>
    <trip id="a9a57" depart="3211.40" from="-l3.2" to="-l5" type="dist0" departLane="best" departSpeed="max" departPos="random"/>
    <trip id="a9a58" depart="3211.60" from="l3.3" to="l3.1" type="dist0" departLane="best" departSpeed="max" departPos="random"/>
    <trip id="a9a59" depart="3211.80" from="l3.1" to="l3.1" type="dist0" departLane="best" departSpeed="max" departPos="random"/>
    <trip id="a9a60" depart="3212.00" from="l2.2" to="-l3.2" type="dist0" departLane="best" departSpeed="max" departPos="random"/>
    <trip id="a9a61" depart="3212.20" from="l4.2" to="-l3.3" type="dist0" departLane="best" departSpeed="max" departPos="random"/>
    <trip id="a9a62" depart="3212.40" from="-l1.1" to="l4.2" type="dist0" departLane="best" departSpeed="max" departPos="random"/>
    <trip id="a9a63" depart="3212.60" from="-l1.1" to="l3.1" type="dist0" departLane="best" departSpeed="max" departPos="random"/>
    <trip id="a9a64" depart="3212.80" from="l2.1" to="-l3.2" type="dist0" departLane="best" departSpeed="max" departPos="random"/>
    <trip id="a9a65" depart="3213.00" from="-l1.1" to="l3.2" type="dist0" departLane="best" departSpeed="max" departPos="random"/>
    <trip id="a9a66" depart="3213.20" from="l4.2" to="-l2" type="dist0" departLane="best" departSpeed="max" departPos="random"/>
    <trip id="a9a67" depart="3213.40" from="-l1.1" to="-l5" type="dist0" departLane="best" departSpeed="max" departPos="random"/>
    <trip id="a9a68" depart="3213.60" from="l3.1" to="l2.2" type="dist0" departLane="best" departSpeed="max" departPos="random"/>
    <trip id="a9a69" depart="3213.80" from="l3.2" to="-l3.2" type="dist0" departLane="best" departSpeed="max" departPos="random"/>
    <trip id="a9a70" depart="3214.00" from="l4.1" to="l1" type="dist0" departLane="best" departSpeed="max" departPos="random"/>
    <trip id="a9a71" depart="3214.20" from="-l3.1" to="l2.2" type="dist0" departLane="best" departSpeed="max" departPos="random"/>
    <trip id="a9a72" depart="3214.40" from="l4.1" to="l3.1" type="dist0" departLane="best" departSpeed="max" departPos="random"/>
    <trip id="a9a73" depart="3214.60" from="-l3.1" to="-l3.1" type="dist0" departLane="best" departSpeed="max" departPos="random"/>
    <trip id="a9a74" depart="3214.80" from="-l3.3" to="l3.1" type="dist0" departLane="best" departSpeed="max" departPos="random"/>
    <trip id="a9a75" depart="3215.00" from="l5.2" to="l4.2" type="dist0" departLane="best" departSpeed="max" departPos="random"/>
    <trip id="a9a76" depart="3215.20" from="-l3.2" to="l3.1" type="dist0" departLane="best" departSpeed="max" departPos="random"/>
    <trip id="a9a77" depart="3215.40" from="l2.1" to="l1" type="dist0" departLane="best" departSpeed="max" departPos="random"/>
    <trip id="a9a78" depart="3215.60" from="l2.1" to="-l3.3" type="dist0" departLane="best" departSpeed="max" departPos="random"/>
    <trip id="a9a79" depart="3215.80" from="l4.2" to="-l4" type="dist0" departLane="best" departSpeed="max" departPos="random"/>
    <trip id="a9a80" depart="3216.00" from="l4.1" to="-l3.3" type="dist0" departLane="best" departSpeed="max" departPos="random"/>
    <trip id="a9a81" depart="3216.20" from="-l3.3" to="-l3.2" type="dist0" departLane="best" departSpeed="max" departPos="random"/>
    <trip id="a9a82" depart="3216.40" from="l5.2" to="l4.2" type="dist0" departLane="best" departSpeed="max" departPos="random"/>
    <trip id="a9a83" depart="3216.60" from="l2.2" to="-l2" type="dist0" departLane="best" departSpeed="max" departPos="random"/>
    <trip id="a9a84" depart="3216.80" from="l3.2" to="l3.1" type="dist0" departLane="best" departSpeed="max" departPos="random"/>
    <trip id="a9a85" depart="3217.00" from="l3.3" to="-l1.2" type="dist0" departLane="best" departSpeed="max" departPos="random"/>
    <trip id="a9a86" depart="3217.20" from="-l3.2" to="-l2" type="dist0" departLane="best" departSpeed="max" departPos="random"/>
    <trip id="a9a87" depart="3217.40" from="l4.1" to="-l5" type="dist0" departLane="best" departSpeed="max" departPos="random"/>
    <trip id="a9a88" depart="3217.60" from="l3.2" to="-l4" type="dist0" departLane="best" departSpeed="max" departPos="random"/>
    <trip id="a9a89" depart="3217.80" from="-l3.3" to="-l4" type="dist0" departLane="best" departSpeed="max" departPos="random"/>
    <trip id="a9a90" depart="3218.00" from="-l3.2" to="l3.1" type="dist0" departLane="best" departSpeed="max" departPos="random"/>
    <trip id="a9a91" depart="3218.20" from="-l3.1" to="-l1.2" type="dist0" departLane="best" departSpeed="max" departPos="random"/>
    <trip id="a9a92" depart="3218.40" from="l2.2" to="-l3.2" type="dist0" departLane="best" departSpeed="max" departPos="random"/>
    <trip id="a9a93" depart="3218.60" from="l2.1" to="-l3.2" type="dist0" departLane="best" departSpeed="max" departPos="random"/>
    <trip id="a9a94" depart="3218.80" from="l3.1" to="-l4" type="dist0" departLane="best" departSpeed="max" departPos="random"/>
    <trip id="a9a95" depart="3219.00" from="-l1.1" to="l1" type="dist0" departLane="best" departSpeed="max" departPos="random"/>
    <trip id="a9a96" depart="3219.20" from="-l1.2" to="-l1.2" type="dist0" departLane="best" departSpeed="max" departPos="random"/>
    <trip id="a9a97" depart="3219.40" from="l4.2" to="-l4" type="dist0" departLane="best" departSpeed="max" departPos="random"/>
    <trip id="a9a98" depart="3219.60" from="l3.2" to="-l1.2" type="dist0" departLane="best" departSpeed="max" departPos="random"/>
    <trip id="a9a99" depart="3219.80" from="-l3.3" to="-l3.1" type="dist0" departLane="best" departSpeed="max" departPos="random"/>
    <trip id="a9a100" depart="3220.00" from="l3.2" to="-l3.3" type="dist0" departLane="best" departSpeed="max" departPos="random"/>
    <trip id="a9a101" depart="3220.20" from="l5.1" to="l4.2" type="dist0" departLane="best" departSpeed="max" departPos="random"/>
    <trip id="a9a102" depart="3220.40" from="l4.2" to="l3.1" type="dist0" departLane="best" departSpeed="max" departPos="random"/>
    <trip id="a9a103" depart="3220.60" from="-l3.2" to="l1" type="dist0" departLane="best" departSpeed="max" departPos="random"/>
    <trip id="a9a104" depart="3220.80" from="l3.3" to="l4.2" type="dist0" departLane="best" departSpeed="max" departPos="random"/>
    <trip id="a9a105" depart="3221.00" from="l3.1" to="l3.2" type="dist0" departLane="best" departSpeed="max" departPos="random"/>
    <trip id="a9a106" depart="3221.20" from="-l3.3" to="-l1.2" type="dist0" departLane="best" departSpeed="max" departPos="random"/>
    <trip id="a9a107" depart="3221.40" from="l3.2" to="-l3.3" type="dist0" departLane="best" departSpeed="max" departPos="random"/>
    <trip id="a9a108" depart="3221.60" from="l4.2" to="l3.2" type="dist0" departLane="best" departSpeed="max" departPos="random"/>
    <trip id="a9a109" depart="3221.80" from="l4.2" to="l2.2" type="dist0" departLane="best" departSpeed="max" departPos="random"/>
    <trip id="a9a110" depart="3222.00" from="l3.1" to="-l3.3" type="dist0" departLane="best" departSpeed="max" departPos="random"/>
    <trip id="a9a111" depart="3222.20" from="-l3.1" to="l5.2" type="dist0" departLane="best" departSpeed="max" departPos="random"/>
    <trip id="a9a112" depart="3222.40" from="l2.1" to="l4.2" type="dist0" departLane="best" departSpeed="max" departPos="random"/>
    <trip id="a9a113" depart="3222.60" from="l3.3" to="-l4" type="dist0" departLane="best" departSpeed="max" departPos="random"/>
    <trip id="a9a114" depart="3222.80" from="-l3.2" to="-l3.1" type="dist0" departLane="best" departSpeed="max" departPos="random"/>
    <trip id="a9a115" depart="3223.00" from="l2.2" to="l3.1" type="dist0" departLane="best" departSpeed="max" departPos="random"/>
    <trip id="a9a116" depart="3223.20" from="l4.1" to="l1" type="dist0" departLane="best" departSpeed="max" departPos="random"/>
    <trip id="a9a117" depart="3223.40" from="-l1.1" to="l2.2" type="dist0" departLane="best" departSpeed="max" departPos="random"/>
    <trip id="a9a118" depart="3223.60" from="l2.2" to="l3.1" type="dist0" departLane="best" departSpeed="max" departPos="random"/>
    <trip id="a9a119" depart="3223.80" from="-l1.2" to="l3.2" type="dist0" departLane="best" departSpeed="max" departPos="random"/>
    <trip id="a9a120" depart="3224.00" from="l3.1" to="-l3.2" type="dist0" departLane="best" departSpeed="max" departPos="random"/>
    <trip id="a9a121" depart="3224.20" from="l3.2" to="-l3.2" type="dist0" departLane="best" departSpeed="max" departPos="random"/>
    <trip id="a9a122" depart="3224.40" from="-l3.2" to="-l4" type="dist0" departLane="best" departSpeed="max" departPos="random"/>
    <trip id="a9a123" depart="3224.60" from="l2.1" to="l2.2" type="dist0" departLane="best" departSpeed="max" departPos="random"/>
    <trip id="a9a124" depart="3224.80" from="-l1.2" to="l3.1" type="dist0" departLane="best" departSpeed="max" departPos="random"/>
    <trip id="a9a125" depart="3225.00" from="l3.2" to="-l1.2" type="dist0" departLane="best" departSpeed="max" departPos="random"/>
    <trip id="a9a126" depart="3225.20" from="-l1.2" to="-l3.2" type="dist0" departLane="best" departSpeed="max" departPos="random"/>
    <trip id="a9a127" depart="3225.40" from="l4.1" to="l4.2" type="dist0" departLane="best" departSpeed="max" departPos="random"/>
    <trip id="a9a128" depart="3225.60" from="l2.2" to="-l2" type="dist0" departLane="best" departSpeed="max" departPos="random"/>
    <trip id="a9a129" depart="3225.80" from="l3.3" to="l3.2" type="dist0" departLane="best" departSpeed="max" departPos="random"/>
    <trip id="a9a130" depart="3226.00" from="l3.2" to="l3.1" type="dist0" departLane="best" departSpeed="max" departPos="random"/>
    <trip id="a9a131" depart="3226.20" from="-l3.2" to="-l1.2" type="dist0" departLane="best" departSpeed="max" departPos="random"/>
    <trip id="a9a132" depart="3226.40" from="l4.2" to="-l2" type="dist0" departLane="best" departSpeed="max" departPos="random"/>
    <trip id="a9a133" depart="3226.60" from="l4.1" to="-l3.3" type="dist0" departLane="best" departSpeed="max" departPos="random"/>
    <trip id="a9a134" depart="3226.80" from="-l1.1" to="l3.1" type="dist0" departLane="best" departSpeed="max" departPos="random"/>
    <trip id="a9a135" depart="3227.00" from="l2.2" to="l3.1" type="dist0" departLane="best" departSpeed="max" departPos="random"/>
    <trip id="a9a136" depart="3227.20" from="l3.2" to="l5.2" type="dist0" departLane="best" departSpeed="max" departPos="random"/>
    <trip id="a9a137" depart="3227.40" from="l3.1" to="-l3.2" type="dist0" departLane="best" departSpeed="max" departPos="random"/>
    <trip id="a9a138" depart="3227.60" from="l3.2" to="l2.2" type="dist0" departLane="best" departSpeed="max" departPos="random"/>
    <trip id="a9a139" depart="3227.80" from="l2.1" to="l3.1" type="dist0" departLane="best" departSpeed="max" departPos="random"/>
    <trip id="a9a140" depart="3228.00" from="-l3.1" to="l1" type="dist0" departLane="best" departSpeed="max" departPos="random"/>
    <trip id="a9a141" depart="3228.20" from="-l3.2" to="-l2" type="dist0" departLane="best" departSpeed="max" departPos="random"/>
    <trip id="a9a142" depart="3228.40" from="l2.1" to="l4.2" type="dist0" departLane="best" departSpeed="max" departPos="random"/>
    <trip id="a9a143" depart="3228.60" from="-l1.1" to="l3.2" type="dist0" departLane="best" departSpeed="max" departPos="random"/>
    <trip id="a9a144" depart="3228.80" from="-l3.2" to="-l4" type="dist0" departLane="best" departSpeed="max" departPos="random"/>
    <trip id="a9a145" depart="3229.00" from="-l3.3" to="-l4" type="dist0" departLane="best" departSpeed="max" departPos="random"/>
    <trip id="a9a146" depart="3229.20" from="l2.2" to="-l3.3" type="dist0" departLane="best" departSpeed="max" departPos="random"/>
    <trip id="a9a147" depart="3229.40" from="-l3.1" to="l3.1" type="dist0" departLane="best" departSpeed="max" departPos="random"/>
    <trip id="a9a148" depart="3229.60" from="-l3.1" to="-l3.3" type="dist0" departLane="best" departSpeed="max" departPos="random"/>
    <trip id="a9a149" depart="3229.80" from="l5.2" to="-l3.1" type="dist0" departLane="best" departSpeed="max" departPos="random"/>
    <trip id="a9a150" depart="3230.00" from="l3.2" to="-l3.3" type="dist0" departLane="best" departSpeed="max" departPos="random"/>
    <trip id="a9a151" depart="3230.20" from="l3.1" to="l4.2" type="dist0" departLane="best" departSpeed="max" departPos="random"/>
    <trip id="a9a152" depart="3230.40" from="l3.3" to="l1" type="dist0" departLane="best" departSpeed="max" departPos="random"/>
    <trip id="a9a153" depart="3230.60" from="l2.2" to="-l3.3" type="dist0" departLane="best" departSpeed="max" departPos="random"/>
    <trip id="a9a154" depart="3230.80" from="l5.1" to="-l4" type="dist0" departLane="best" departSpeed="max" departPos="random"/>
    <trip id="a9a155" depart="3231.00" from="-l1.2" to="-l1.2" type="dist0" departLane="best" departSpeed="max" departPos="random"/>
    <trip id="a9a156" depart="3231.20" from="l2.2" to="l4.2" type="dist0" departLane="best" departSpeed="max" departPos="random"/>
    <trip id="a9a157" depart="3231.40" from="-l1.2" to="l5.2" type="dist0" departLane="best" departSpeed="max" departPos="random"/>
    <trip id="a9a158" depart="3231.60" from="l3.3" to="-l1.2" type="dist0" departLane="best" departSpeed="max" departPos="random"/>
    <trip id="a9a159" depart="3231.80" from="l5.2" to="l1" type="dist0" departLane="best" departSpeed="max" departPos="random"/>
    <trip id="a9a160" depart="3232.00" from="-l3.3" to="-l4" type="dist0" departLane="best" departSpeed="max" departPos="random"/>
    <trip id="a9a161" depart="3232.20" from="l2.1" to="l3.2" type="dist0" departLane="best" departSpeed="max" departPos="random"/>
    <trip id="a9a162" depart="3232.40" from="-l3.3" to="-l5" type="dist0" departLane="best" departSpeed="max" departPos="random"/>
    <trip id="a9a163" depart="3232.60" from="-l1.2" to="l1" type="dist0" departLane="best" departSpeed="max" departPos="random"/>
    <trip id="a9a164" depart="3232.80" from="-l3.2" to="l5.2" type="dist0" departLane="best" departSpeed="max" departPos="random"/>
    <trip id="a9a165" depart="3233.00" from="l5.1" to="l3.1" type="dist0" departLane="best" departSpeed="max" departPos="random"/>
    <trip id="a9a166" depart="3233.20" from="l3.1" to="l3.2" type="dist0" departLane="best" departSpeed="max" departPos="random"/>
    <trip id="a9a167" depart="3233.40" from="l4.1" to="l3.2" type="dist0" departLane="best" departSpeed="max" departPos="random"/>
    <trip id="a9a168" depart="3233.60" from="l2.2" to="-l3.1" type="dist0" departLane="best" departSpeed="max" departPos="random"/>
    <trip id="a9a169" depart="3233.80" from="l4.2" to="-l4" type="dist0" departLane="best" departSpeed="max" departPos="random"/>
    <trip id="a9a170" depart="3234.00" from="-l1.2" to="-l3.1" type="dist0" departLane="best" departSpeed="max" departPos="random"/>
    <trip id="a9a171" depart="3234.20" from="-l1.2" to="l5.2" type="dist0" departLane="best" departSpeed="max" departPos="random"/>
    <trip id="a9a172" depart="3234.40" from="-l3.2" to="l4.2" type="dist0" departLane="best" departSpeed="max" departPos="random"/>
    <trip id="a9a173" depart="3234.60" from="-l3.2" to="-l3.2" type="dist0" departLane="best" departSpeed="max" departPos="random"/>
    <trip id="a9a174" depart="3234.80" from="l3.2" to="l3.2" type="dist0" departLane="best" departSpeed="max" departPos="random"/>
    <trip id="a9a175" depart="3235.00" from="l2.1" to="-l3.1" type="dist0" departLane="best" departSpeed="max" departPos="random"/>
    <trip id="a9a176" depart="3235.20" from="-l1.2" to="l1" type="dist0" departLane="best" departSpeed="max" departPos="random"/>
    <trip id="a9a177" depart="3235.40" from="l4.2" to="-l1.2" type="dist0" departLane="best" departSpeed="max" departPos="random"/>
    <trip id="a9a178" depart="3235.60" from="-l3.1" to="-l4" type="dist0" departLane="best" departSpeed="max" departPos="random"/>
    <trip id="a9a179" depart="3235.80" from="l3.2" to="-l3.1" type="dist0" departLane="best" departSpeed="max" departPos="random"/>
    <trip id="a9a180" depart="3236.00" from="-l1.2" to="l1" type="dist0" departLane="best" departSpeed="max" departPos="random"/>
    <trip id="a9a181" depart="3236.20" from="l3.2" to="-l3.3" type="dist0" departLane="best" departSpeed="max" departPos="random"/>
    <trip id="a9a182" depart="3236.40" from="l4.1" to="l4.2" type="dist0" departLane="best" departSpeed="max" departPos="random"/>
    <trip id="a9a183" depart="3236.60" from="l2.2" to="-l3.3" type="dist0" departLane="best" departSpeed="max" departPos="random"/>
    <trip id="a9a184" depart="3236.80" from="l2.1" to="-l3.3" type="dist0" departLane="best" departSpeed="max" departPos="random"/>
    <trip id="a9a185" depart="3237.00" from="-l3.1" to="-l2" type="dist0" departLane="best" departSpeed="max" departPos="random"/>
    <trip id="a9a186" depart="3237.20" from="l3.3" to="-l3.3" type="dist0" departLane="best" departSpeed="max" departPos="random"/>
    <trip id="a9a187" depart="3237.40" from="-l3.3" to="-l3.1" type="dist0" departLane="best" departSpeed="max" departPos="random"/>
    <trip id="a9a188" depart="3237.60" from="-l3.3" to="l3.2" type="dist0" departLane="best" departSpeed="max" departPos="random"/>
    <trip id="a9a189" depart="3237.80" from="-l3.2" to="-l2" type="dist0" departLane="best" departSpeed="max" departPos="random"/>
    <trip id="a9a190" depart="3238.00" from="l5.2" to="l3.1" type="dist0" departLane="best" departSpeed="max" departPos="random"/>
    <trip id="a9a191" depart="3238.20" from="-l1.2" to="-l1.2" type="dist0" departLane="best" departSpeed="max" departPos="random"/>
    <trip id="a9a192" depart="3238.40" from="-l3.1" to="l3.3" type="dist0" departLane="best" departSpeed="max" departPos="random"/>
    <trip id="a9a193" depart="3238.60" from="l4.1" to="-l3.3" type="dist0" departLane="best" departSpeed="max" departPos="random"/>
    <trip id="a9a194" depart="3238.80" from="-l3.2" to="-l1.2" type="dist0" departLane="best" departSpeed="max" departPos="random"/>
    <trip id="a9a195" depart="3239.00" from="l2.2" to="l3.2" type="dist0" departLane="best" departSpeed="max" departPos="random"/>
    <trip id="a9a196" depart="3239.20" from="l3.1" to="l5.2" type="dist0" departLane="best" departSpeed="max" departPos="random"/>
    <trip id="a9a197" depart="3239.40" from="-l1.1" to="l3.3" type="dist0" departLane="best" departSpeed="max" departPos="random"/>
    <trip id="a9a198" depart="3239.60" from="l2.1" to="-l3.2" type="dist0" departLane="best" departSpeed="max" departPos="random"/>
    <trip id="a9a199" depart="3239.80" from="l3.2" to="-l3.3" type="dist0" departLane="best" departSpeed="max" departPos="random"/>
    <trip id="a9a200" depart="3240.00" from="l2.2" to="-l3.2" type="dist0" departLane="best" departSpeed="max" departPos="random"/>
    <trip id="a9a201" depart="3240.20" from="l3.1" to="l3.2" type="dist0" departLane="best" departSpeed="max" departPos="random"/>
    <trip id="a9a202" depart="3240.40" from="l4.2" to="-l3.2" type="dist0" departLane="best" departSpeed="max" departPos="random"/>
    <trip id="a9a203" depart="3240.60" from="-l1.2" to="l3.2" type="dist0" departLane="best" departSpeed="max" departPos="random"/>
    <trip id="a9a204" depart="3240.80" from="l4.2" to="l3.1" type="dist0" departLane="best" departSpeed="max" departPos="random"/>
    <trip id="a9a205" depart="3241.00" from="l3.1" to="l3.1" type="dist0" departLane="best" departSpeed="max" departPos="random"/>
    <trip id="a9a206" depart="3241.20" from="l2.1" to="l5.2" type="dist0" departLane="best" departSpeed="max" departPos="random"/>
    <trip id="a9a207" depart="3241.40" from="l5.1" to="l3.2" type="dist0" departLane="best" departSpeed="max" departPos="random"/>
    <trip id="a9a208" depart="3241.60" from="-l3.2" to="-l4" type="dist0" departLane="best" departSpeed="max" departPos="random"/>
    <trip id="a9a209" depart="3241.80" from="l3.2" to="-l3.2" type="dist0" departLane="best" departSpeed="max" departPos="random"/>
    <trip id="a9a210" depart="3242.00" from="-l3.2" to="-l4" type="dist0" departLane="best" departSpeed="max" departPos="random"/>
    <trip id="a9a211" depart="3242.20" from="l4.2" to="l5.2" type="dist0" departLane="best" departSpeed="max" departPos="random"/>
    <trip id="a9a212" depart="3242.40" from="l3.2" to="l5.2" type="dist0" departLane="best" departSpeed="max" departPos="random"/>
    <trip id="a9a213" depart="3242.60" from="l3.1" to="l3.3" type="dist0" departLane="best" departSpeed="max" departPos="random"/>
    <trip id="a9a214" depart="3242.80" from="-l3.2" to="-l4" type="dist0" departLane="best" departSpeed="max" departPos="random"/>
    <trip id="a9a215" depart="3243.00" from="-l3.3" to="-l2" type="dist0" departLane="best" departSpeed="max" departPos="random"/>
    <trip id="a9a216" depart="3243.20" from="-l3.3" to="-l2" type="dist0" departLane="best" departSpeed="max" departPos="random"/>
    <trip id="a9a217" depart="3243.40" from="l3.2" to="-l3.1" type="dist0" departLane="best" departSpeed="max" departPos="random"/>
    <trip id="a9a218" depart="3243.60" from="l4.2" to="-l3.1" type="dist0" departLane="best" departSpeed="max" departPos="random"/>
    <trip id="a9a219" depart="3243.80" from="-l1.1" to="l3.3" type="dist0" departLane="best" departSpeed="max" departPos="random"/>
    <trip id="a9a220" depart="3244.00" from="l3.3" to="-l2" type="dist0" departLane="best" departSpeed="max" departPos="random"/>
    <trip id="a9a221" depart="3244.20" from="-l3.2" to="-l2" type="dist0" departLane="best" departSpeed="max" departPos="random"/>
    <trip id="a9a222" depart="3244.40" from="-l3.2" to="-l3.3" type="dist0" departLane="best" departSpeed="max" departPos="random"/>