<?xml version="1.0" encoding="UTF-8"?>

<!-- generated on 2021-05-11 12:54:47 by Eclipse SUMO duarouter Version 1.9.1
<configuration xmlns:xsi="http://www.w3.org/2001/XMLSchema-instance" xsi:noNamespaceSchemaLocation="http://sumo.dlr.de/xsd/duarouterConfiguration.xsd">

    <input>
        <net-file value="./sumo_files/single_intersection/single_intersection.net.xml"/>
        <additional-files value="./sumo_files/single_intersection/single_intersection.add.xml"/>
        <route-files value="./sumo_files/single_intersection/trips.trips.xml"/>
    </input>

    <output>
        <output-file value="./sumo_files/single_intersection/single_intersection5.rou.xml"/>
        <vtype-output value="vtypeout.xml"/>
        <alternatives-output value="./sumo_files/single_intersection/single_intersection5.rou.alt.xml"/>
    </output>

    <time>
        <begin value="1600.0"/>
        <end value="2000.0"/>
    </time>

    <report>
        <no-warnings value="true"/>
        <ignore-errors value="true"/>
        <no-step-log value="true"/>
    </report>

</configuration>
-->

<routes xmlns:xsi="http://www.w3.org/2001/XMLSchema-instance" xsi:noNamespaceSchemaLocation="http://sumo.dlr.de/xsd/routes_file.xsd">
    <vehicle id="a5a1" type="car" depart="1600.50" departLane="best" departPos="random" departSpeed="max">
        <route edges="l1 l2"/>
    </vehicle>
    <vehicle id="a5a2" type="car" depart="1601.00" departLane="best" departPos="random" departSpeed="max">
        <route edges="l1 -l4"/>
    </vehicle>
    <vehicle id="a5a3" type="car" depart="1601.50" departLane="best" departPos="random" departSpeed="max">
        <route edges="l4 l2"/>
    </vehicle>
    <vehicle id="a5a4" type="car" depart="1602.00" departLane="best" departPos="random" departSpeed="max">
        <route edges="-l3 -l4"/>
    </vehicle>
    <vehicle id="a5a6" type="car" depart="1603.00" departLane="best" departPos="random" departSpeed="max">
        <route edges="l1 l3"/>
    </vehicle>
    <vehicle id="a5a7" type="car" depart="1603.50" departLane="best" departPos="random" departSpeed="max">
        <route edges="l4 l2"/>
    </vehicle>
    <vehicle id="a5a8" type="car" depart="1604.00" departLane="best" departPos="random" departSpeed="max">
        <route edges="l4 -l1"/>
    </vehicle>
    <vehicle id="a5a9" type="car" depart="1604.50" departLane="best" departPos="random" departSpeed="max">
        <route edges="-l2 -l4"/>
    </vehicle>
    <vehicle id="a5a10" type="car" depart="1605.00" departLane="best" departPos="random" departSpeed="max">
        <route edges="-l2 -l1"/>
    </vehicle>
    <vehicle id="a5a12" type="car" depart="1606.00" departLane="best" departPos="random" departSpeed="max">
        <route edges="-l2 -l1"/>
    </vehicle>
    <vehicle id="a5a13" type="car" depart="1606.50" departLane="best" departPos="random" departSpeed="max">
        <route edges="-l2 -l4"/>
    </vehicle>
    <vehicle id="a5a14" type="car" depart="1607.00" departLane="best" departPos="random" departSpeed="max">
        <route edges="l1 l3"/>
    </vehicle>
    <vehicle id="a5a15" type="car" depart="1607.50" departLane="best" departPos="random" departSpeed="max">
        <route edges="l1 l2"/>
    </vehicle>
    <vehicle id="a5a16" type="car" depart="1608.00" departLane="best" departPos="random" departSpeed="max">
        <route edges="-l2 l3"/>
    </vehicle>
    <vehicle id="a5a17" type="motor" depart="1608.50" departLane="best" departPos="random" departSpeed="max">
        <route edges="l4 l3"/>
    </vehicle>
    <vehicle id="a5a18" type="car" depart="1609.00" departLane="best" departPos="random" departSpeed="max">
        <route edges="l1 l3"/>
    </vehicle>
    <vehicle id="a5a19" type="car" depart="1609.50" departLane="best" departPos="random" departSpeed="max">
        <route edges="l4 l3"/>
    </vehicle>
    <vehicle id="a5a20" type="car" depart="1610.00" departLane="best" departPos="random" departSpeed="max">
        <route edges="-l2 -l1"/>
    </vehicle>
    <vehicle id="a5a21" type="car" depart="1610.50" departLane="best" departPos="random" departSpeed="max">
        <route edges="l4 -l1"/>
    </vehicle>
    <vehicle id="a5a22" type="car" depart="1611.00" departLane="best" departPos="random" departSpeed="max">
        <route edges="-l2 -l4"/>
    </vehicle>
    <vehicle id="a5a25" type="emergency" depart="1612.50" departLane="best" departPos="random" departSpeed="max">
        <route edges="-l2 l3"/>
    </vehicle>
    <vehicle id="a5a26" type="motor" depart="1613.00" departLane="best" departPos="random" departSpeed="max">
        <route edges="l1 l2"/>
    </vehicle>
    <vehicle id="a5a27" type="car" depart="1613.50" departLane="best" departPos="random" departSpeed="max">
        <route edges="l1 l3"/>
    </vehicle>
    <vehicle id="a5a28" type="car" depart="1614.00" departLane="best" departPos="random" departSpeed="max">
        <route edges="l4 l2"/>
    </vehicle>
    <vehicle id="a5a29" type="car" depart="1614.50" departLane="best" departPos="random" departSpeed="max">
        <route edges="l4 l3"/>
    </vehicle>
    <vehicle id="a5a30" type="car" depart="1615.00" departLane="best" departPos="random" departSpeed="max">
        <route edges="l1 -l4"/>
    </vehicle>
    <vehicle id="a5a31" type="car" depart="1615.50" departLane="best" departPos="random" departSpeed="max">
        <route edges="-l3 -l1"/>
    </vehicle>
    <vehicle id="a5a32" type="car" depart="1616.00" departLane="best" departPos="random" departSpeed="max">
        <route edges="-l2 l3"/>
    </vehicle>
    <vehicle id="a5a33" type="car" depart="1616.50" departLane="best" departPos="random" departSpeed="max">
        <route edges="l1 l2"/>
    </vehicle>
    <vehicle id="a5a34" type="motor" depart="1617.00" departLane="best" departPos="random" departSpeed="max">
        <route edges="-l3 l2"/>
    </vehicle>
    <vehicle id="a5a35" type="car" depart="1617.50" departLane="best" departPos="random" departSpeed="max">
        <route edges="l4 l3"/>
    </vehicle>
    <vehicle id="a5a37" type="car" depart="1618.50" departLane="best" departPos="random" departSpeed="max">
        <route edges="l4 l3"/>
    </vehicle>
    <vehicle id="a5a39" type="car" depart="1619.50" departLane="best" departPos="random" departSpeed="max">
        <route edges="l1 l3"/>
    </vehicle>
    <vehicle id="a5a40" type="car" depart="1620.00" departLane="best" departPos="random" departSpeed="max">
        <route edges="-l2 -l4"/>
    </vehicle>
    <vehicle id="a5a41" type="motor" depart="1620.50" departLane="best" departPos="random" departSpeed="max">
        <route edges="l1 l3"/>
    </vehicle>
    <vehicle id="a5a42" type="car" depart="1621.00" departLane="best" departPos="random" departSpeed="max">
        <route edges="-l3 -l4"/>
    </vehicle>
    <vehicle id="a5a43" type="car" depart="1621.50" departLane="best" departPos="random" departSpeed="max">
        <route edges="l4 l3"/>
    </vehicle>
    <vehicle id="a5a44" type="car" depart="1622.00" departLane="best" departPos="random" departSpeed="max">
        <route edges="-l2 l3"/>
    </vehicle>
    <vehicle id="a5a45" type="car" depart="1622.50" departLane="best" departPos="random" departSpeed="max">
        <route edges="-l3 -l1"/>
    </vehicle>
    <vehicle id="a5a47" type="emergency" depart="1623.50" departLane="best" departPos="random" departSpeed="max">
        <route edges="-l2 -l1"/>
    </vehicle>
    <vehicle id="a5a48" type="car" depart="1624.00" departLane="best" departPos="random" departSpeed="max">
        <route edges="-l3 l2"/>
    </vehicle>
    <vehicle id="a5a49" type="car" depart="1624.50" departLane="best" departPos="random" departSpeed="max">
        <route edges="-l3 -l4"/>
    </vehicle>
    <vehicle id="a5a50" type="car" depart="1625.00" departLane="best" departPos="random" departSpeed="max">
        <route edges="-l2 l3"/>
    </vehicle>
    <vehicle id="a5a51" type="car" depart="1625.50" departLane="best" departPos="random" departSpeed="max">
        <route edges="l1 -l4"/>
    </vehicle>
    <vehicle id="a5a53" type="motor" depart="1626.50" departLane="best" departPos="random" departSpeed="max">
        <route edges="l1 l2"/>
    </vehicle>
    <vehicle id="a5a56" type="car" depart="1628.00" departLane="best" departPos="random" departSpeed="max">
        <route edges="-l3 -l1"/>
    </vehicle>
    <vehicle id="a5a57" type="car" depart="1628.50" departLane="best" departPos="random" departSpeed="max">
        <route edges="-l2 l3"/>
    </vehicle>
    <vehicle id="a5a58" type="car" depart="1629.00" departLane="best" departPos="random" departSpeed="max">
        <route edges="l1 l2"/>
    </vehicle>
    <vehicle id="a5a60" type="car" depart="1630.00" departLane="best" departPos="random" departSpeed="max">
        <route edges="-l2 -l1"/>
    </vehicle>
    <vehicle id="a5a61" type="car" depart="1630.50" departLane="best" departPos="random" departSpeed="max">
        <route edges="l1 l3"/>
    </vehicle>
    <vehicle id="a5a62" type="car" depart="1631.00" departLane="best" departPos="random" departSpeed="max">
        <route edges="l4 -l1"/>
    </vehicle>
    <vehicle id="a5a63" type="car" depart="1631.50" departLane="best" departPos="random" departSpeed="max">
        <route edges="-l2 -l1"/>
    </vehicle>
    <vehicle id="a5a64" type="car" depart="1632.00" departLane="best" departPos="random" departSpeed="max">
        <route edges="l1 l2"/>
    </vehicle>
    <vehicle id="a5a65" type="car" depart="1632.50" departLane="best" departPos="random" departSpeed="max">
        <route edges="l1 -l4"/>
    </vehicle>
    <vehicle id="a5a66" type="motor" depart="1633.00" departLane="best" departPos="random" departSpeed="max">
        <route edges="-l3 -l1"/>
    </vehicle>
    <vehicle id="a5a67" type="car" depart="1633.50" departLane="best" departPos="random" departSpeed="max">
        <route edges="l4 l2"/>
    </vehicle>
    <vehicle id="a5a68" type="car" depart="1634.00" departLane="best" departPos="random" departSpeed="max">
        <route edges="-l2 -l4"/>
    </vehicle>
    <vehicle id="a5a69" type="motor" depart="1634.50" departLane="best" departPos="random" departSpeed="max">
        <route edges="-l3 -l4"/>
    </vehicle>
    <vehicle id="a5a70" type="car" depart="1635.00" departLane="best" departPos="random" departSpeed="max">
        <route edges="-l3 -l1"/>
    </vehicle>
    <vehicle id="a5a71" type="car" depart="1635.50" departLane="best" departPos="random" departSpeed="max">
        <route edges="-l3 -l1"/>
    </vehicle>
    <vehicle id="a5a72" type="car" depart="1636.00" departLane="best" departPos="random" departSpeed="max">
        <route edges="-l3 -l4"/>
    </vehicle>
    <vehicle id="a5a73" type="car" depart="1636.50" departLane="best" departPos="random" departSpeed="max">
        <route edges="-l3 -l1"/>
    </vehicle>
    <vehicle id="a5a74" type="car" depart="1637.00" departLane="best" departPos="random" departSpeed="max">
        <route edges="-l3 -l1"/>
    </vehicle>
    <vehicle id="a5a75" type="car" depart="1637.50" departLane="best" departPos="random" departSpeed="max">
        <route edges="l1 l3"/>
    </vehicle>
    <vehicle id="a5a79" type="car" depart="1639.50" departLane="best" departPos="random" departSpeed="max">
        <route edges="-l3 -l1"/>
    </vehicle>
    <vehicle id="a5a80" type="car" depart="1640.00" departLane="best" departPos="random" departSpeed="max">
        <route edges="l4 l2"/>
    </vehicle>
    <vehicle id="a5a81" type="car" depart="1640.50" departLane="best" departPos="random" departSpeed="max">
        <route edges="-l3 -l1"/>
    </vehicle>
    <vehicle id="a5a82" type="car" depart="1641.00" departLane="best" departPos="random" departSpeed="max">
        <route edges="l4 -l1"/>
    </vehicle>
    <vehicle id="a5a83" type="car" depart="1641.50" departLane="best" departPos="random" departSpeed="max">
        <route edges="-l2 -l4"/>
    </vehicle>
    <vehicle id="a5a85" type="car" depart="1642.50" departLane="best" departPos="random" departSpeed="max">
        <route edges="l4 l3"/>
    </vehicle>
    <vehicle id="a5a86" type="car" depart="1643.00" departLane="best" departPos="random" departSpeed="max">
        <route edges="l1 l2"/>
    </vehicle>
    <vehicle id="a5a87" type="emergency" depart="1643.50" departLane="best" departPos="random" departSpeed="max">
        <route edges="l4 l3"/>
    </vehicle>
    <vehicle id="a5a88" type="car" depart="1644.00" departLane="best" departPos="random" departSpeed="max">
        <route edges="l4 -l1"/>
    </vehicle>
    <vehicle id="a5a89" type="car" depart="1644.50" departLane="best" departPos="random" departSpeed="max">
        <route edges="-l3 l2"/>
    </vehicle>
    <vehicle id="a5a90" type="car" depart="1645.00" departLane="best" departPos="random" departSpeed="max">
        <route edges="-l3 l2"/>
    </vehicle>
    <vehicle id="a5a91" type="motor" depart="1645.50" departLane="best" departPos="random" departSpeed="max">
        <route edges="l1 l3"/>
    </vehicle>
    <vehicle id="a5a93" type="car" depart="1646.50" departLane="best" departPos="random" departSpeed="max">
        <route edges="-l3 l2"/>
    </vehicle>
    <vehicle id="a5a94" type="car" depart="1647.00" departLane="best" departPos="random" departSpeed="max">
        <route edges="l1 l2"/>
    </vehicle>
    <vehicle id="a5a95" type="motor" depart="1647.50" departLane="best" departPos="random" departSpeed="max">
        <route edges="l4 -l1"/>
    </vehicle>
    <vehicle id="a5a96" type="car" depart="1648.00" departLane="best" departPos="random" departSpeed="max">
        <route edges="-l2 l3"/>
    </vehicle>
    <vehicle id="a5a97" type="motor" depart="1648.50" departLane="best" departPos="random" departSpeed="max">
        <route edges="-l2 -l4"/>
    </vehicle>
    <vehicle id="a5a98" type="car" depart="1649.00" departLane="best" departPos="random" departSpeed="max">
        <route edges="l4 -l1"/>
    </vehicle>
    <vehicle id="a5a100" type="car" depart="1650.00" departLane="best" departPos="random" departSpeed="max">
        <route edges="-l3 -l4"/>
    </vehicle>
    <vehicle id="a5a102" type="motor" depart="1651.00" departLane="best" departPos="random" departSpeed="max">
        <route edges="l4 l3"/>
    </vehicle>
    <vehicle id="a5a103" type="car" depart="1651.50" departLane="best" departPos="random" departSpeed="max">
        <route edges="-l3 -l1"/>
    </vehicle>
    <vehicle id="a5a104" type="motor" depart="1652.00" departLane="best" departPos="random" departSpeed="max">
        <route edges="-l2 -l4"/>
    </vehicle>
    <vehicle id="a5a105" type="car" depart="1652.50" departLane="best" departPos="random" departSpeed="max">
        <route edges="-l3 l2"/>
    </vehicle>
    <vehicle id="a5a106" type="car" depart="1653.00" departLane="best" departPos="random" departSpeed="max">
        <route edges="-l2 l3"/>
    </vehicle>
    <vehicle id="a5a108" type="car" depart="1654.00" departLane="best" departPos="random" departSpeed="max">
        <route edges="l1 l2"/>
    </vehicle>
    <vehicle id="a5a109" type="car" depart="1654.50" departLane="best" departPos="random" departSpeed="max">
        <route edges="-l2 l3"/>
    </vehicle>
    <vehicle id="a5a110" type="car" depart="1655.00" departLane="best" departPos="random" departSpeed="max">
        <route edges="-l3 -l1"/>
    </vehicle>
    <vehicle id="a5a112" type="car" depart="1656.00" departLane="best" departPos="random" departSpeed="max">
        <route edges="-l2 l3"/>
    </vehicle>
    <vehicle id="a5a114" type="car" depart="1657.00" departLane="best" departPos="random" departSpeed="max">
        <route edges="l1 -l4"/>
    </vehicle>
    <vehicle id="a5a116" type="car" depart="1658.00" departLane="best" departPos="random" departSpeed="max">
        <route edges="-l2 l3"/>
    </vehicle>
    <vehicle id="a5a117" type="car" depart="1658.50" departLane="best" departPos="random" departSpeed="max">
        <route edges="l1 l3"/>
    </vehicle>
    <vehicle id="a5a118" type="motor" depart="1659.00" departLane="best" departPos="random" departSpeed="max">
        <route edges="-l2 -l1"/>
    </vehicle>
    <vehicle id="a5a119" type="car" depart="1659.50" departLane="best" departPos="random" departSpeed="max">
        <route edges="-l3 l2"/>
    </vehicle>
    <vehicle id="a5a120" type="car" depart="1660.00" departLane="best" departPos="random" departSpeed="max">
        <route edges="l4 l3"/>
    </vehicle>
    <vehicle id="a5a121" type="car" depart="1660.50" departLane="best" departPos="random" departSpeed="max">
        <route edges="l4 l2"/>
    </vehicle>
    <vehicle id="a5a122" type="car" depart="1661.00" departLane="best" departPos="random" departSpeed="max">
        <route edges="l4 -l1"/>
    </vehicle>
    <vehicle id="a5a126" type="car" depart="1663.00" departLane="best" departPos="random" departSpeed="max">
        <route edges="-l3 l2"/>
    </vehicle>
    <vehicle id="a5a127" type="motor" depart="1663.50" departLane="best" departPos="random" departSpeed="max">
        <route edges="l1 l2"/>
    </vehicle>
    <vehicle id="a5a130" type="car" depart="1665.00" departLane="best" departPos="random" departSpeed="max">
        <route edges="l4 l2"/>
    </vehicle>
    <vehicle id="a5a131" type="car" depart="1665.50" departLane="best" departPos="random" departSpeed="max">
        <route edges="l1 -l4"/>
    </vehicle>
    <vehicle id="a5a132" type="car" depart="1666.00" departLane="best" departPos="random" departSpeed="max">
        <route edges="-l3 l2"/>
    </vehicle>
    <vehicle id="a5a133" type="car" depart="1666.50" departLane="best" departPos="random" departSpeed="max">
        <route edges="l1 l3"/>
    </vehicle>
    <vehicle id="a5a135" type="car" depart="1667.50" departLane="best" departPos="random" departSpeed="max">
        <route edges="-l2 -l1"/>
    </vehicle>
    <vehicle id="a5a136" type="car" depart="1668.00" departLane="best" departPos="random" departSpeed="max">
        <route edges="l4 l2"/>
    </vehicle>
    <vehicle id="a5a137" type="car" depart="1668.50" departLane="best" departPos="random" departSpeed="max">
        <route edges="-l2 -l4"/>
    </vehicle>
    <vehicle id="a5a139" type="car" depart="1669.50" departLane="best" departPos="random" departSpeed="max">
        <route edges="-l2 l3"/>
    </vehicle>
    <vehicle id="a5a140" type="emergency" depart="1670.00" departLane="best" departPos="random" departSpeed="max">
        <route edges="-l3 -l1"/>
    </vehicle>
    <vehicle id="a5a141" type="motor" depart="1670.50" departLane="best" departPos="random" departSpeed="max">
        <route edges="-l3 -l1"/>
    </vehicle>
    <vehicle id="a5a142" type="car" depart="1671.00" departLane="best" departPos="random" departSpeed="max">
        <route edges="-l3 -l1"/>
    </vehicle>
    <vehicle id="a5a143" type="car" depart="1671.50" departLane="best" departPos="random" departSpeed="max">
        <route edges="-l3 l2"/>
    </vehicle>
    <vehicle id="a5a145" type="motor" depart="1672.50" departLane="best" departPos="random" departSpeed="max">
        <route edges="l4 -l1"/>
    </vehicle>
    <vehicle id="a5a148" type="car" depart="1674.00" departLane="best" departPos="random" departSpeed="max">
        <route edges="-l2 -l1"/>
    </vehicle>
    <vehicle id="a5a149" type="car" depart="1674.50" departLane="best" departPos="random" departSpeed="max">
        <route edges="-l2 -l1"/>
    </vehicle>
    <vehicle id="a5a150" type="car" depart="1675.00" departLane="best" departPos="random" departSpeed="max">
        <route edges="l1 l2"/>
    </vehicle>
    <vehicle id="a5a151" type="car" depart="1675.50" departLane="best" departPos="random" departSpeed="max">
        <route edges="-l2 -l4"/>
    </vehicle>
    <vehicle id="a5a153" type="car" depart="1676.50" departLane="best" departPos="random" departSpeed="max">
        <route edges="l1 l3"/>
    </vehicle>
    <vehicle id="a5a155" type="motor" depart="1677.50" departLane="best" departPos="random" departSpeed="max">
        <route edges="-l2 -l1"/>
    </vehicle>
    <vehicle id="a5a156" type="car" depart="1678.00" departLane="best" departPos="random" departSpeed="max">
        <route edges="l1 l2"/>
    </vehicle>
    <vehicle id="a5a157" type="car" depart="1678.50" departLane="best" departPos="random" departSpeed="max">
        <route edges="-l2 l3"/>
    </vehicle>
    <vehicle id="a5a159" type="car" depart="1679.50" departLane="best" departPos="random" departSpeed="max">
        <route edges="-l3 -l4"/>
    </vehicle>
    <vehicle id="a5a160" type="car" depart="1680.00" departLane="best" departPos="random" departSpeed="max">
        <route edges="-l3 l2"/>
    </vehicle>
    <vehicle id="a5a161" type="motor" depart="1680.50" departLane="best" departPos="random" departSpeed="max">
        <route edges="l4 -l1"/>
    </vehicle>
    <vehicle id="a5a162" type="emergency" depart="1681.00" departLane="best" departPos="random" departSpeed="max">
        <route edges="l1 l3"/>
    </vehicle>
    <vehicle id="a5a163" type="car" depart="1681.50" departLane="best" departPos="random" departSpeed="max">
        <route edges="l1 l3"/>
    </vehicle>
    <vehicle id="a5a164" type="motor" depart="1682.00" departLane="best" departPos="random" departSpeed="max">
        <route edges="l4 l3"/>
    </vehicle>
    <vehicle id="a5a166" type="motor" depart="1683.00" departLane="best" departPos="random" departSpeed="max">
        <route edges="-l2 -l1"/>
    </vehicle>
    <vehicle id="a5a167" type="car" depart="1683.50" departLane="best" departPos="random" departSpeed="max">
        <route edges="l1 -l4"/>
    </vehicle>
    <vehicle id="a5a168" type="car" depart="1684.00" departLane="best" departPos="random" departSpeed="max">
        <route edges="l4 l3"/>
    </vehicle>
    <vehicle id="a5a169" type="emergency" depart="1684.50" departLane="best" departPos="random" departSpeed="max">
        <route edges="-l3 -l4"/>
    </vehicle>
    <vehicle id="a5a170" type="car" depart="1685.00" departLane="best" departPos="random" departSpeed="max">
        <route edges="-l2 l3"/>
    </vehicle>
    <vehicle id="a5a171" type="car" depart="1685.50" departLane="best" departPos="random" departSpeed="max">
        <route edges="-l3 -l4"/>
    </vehicle>
    <vehicle id="a5a174" type="car" depart="1687.00" departLane="best" departPos="random" departSpeed="max">
        <route edges="-l3 -l1"/>
    </vehicle>
    <vehicle id="a5a175" type="car" depart="1687.50" departLane="best" departPos="random" departSpeed="max">
        <route edges="-l3 -l4"/>
    </vehicle>
    <vehicle id="a5a176" type="car" depart="1688.00" departLane="best" departPos="random" departSpeed="max">
        <route edges="-l3 -l4"/>
    </vehicle>
    <vehicle id="a5a177" type="car" depart="1688.50" departLane="best" departPos="random" departSpeed="max">
        <route edges="-l3 l2"/>
    </vehicle>
    <vehicle id="a5a179" type="car" depart="1689.50" departLane="best" departPos="random" departSpeed="max">
        <route edges="l4 -l1"/>
    </vehicle>
    <vehicle id="a5a180" type="car" depart="1690.00" departLane="best" departPos="random" departSpeed="max">
        <route edges="l1 -l4"/>
    </vehicle>
    <vehicle id="a5a181" type="car" depart="1690.50" departLane="best" departPos="random" departSpeed="max">
        <route edges="l4 l2"/>
    </vehicle>
    <vehicle id="a5a182" type="car" depart="1691.00" departLane="best" departPos="random" departSpeed="max">
        <route edges="-l3 -l1"/>
    </vehicle>
    <vehicle id="a5a184" type="car" depart="1692.00" departLane="best" departPos="random" departSpeed="max">
        <route edges="l4 -l1"/>
    </vehicle>
    <vehicle id="a5a185" type="car" depart="1692.50" departLane="best" departPos="random" departSpeed="max">
        <route edges="-l3 -l1"/>
    </vehicle>
    <vehicle id="a5a186" type="car" depart="1693.00" departLane="best" departPos="random" departSpeed="max">
        <route edges="l1 -l4"/>
    </vehicle>
    <vehicle id="a5a187" type="car" depart="1693.50" departLane="best" departPos="random" departSpeed="max">
        <route edges="l1 l2"/>
    </vehicle>
    <vehicle id="a5a189" type="car" depart="1694.50" departLane="best" departPos="random" departSpeed="max">
        <route edges="l4 l3"/>
    </vehicle>
    <vehicle id="a5a190" type="car" depart="1695.00" departLane="best" departPos="random" departSpeed="max">
        <route edges="l1 -l4"/>
    </vehicle>
    <vehicle id="a5a191" type="motor" depart="1695.50" departLane="best" departPos="random" departSpeed="max">
        <route edges="-l3 -l4"/>
    </vehicle>
    <vehicle id="a5a192" type="car" depart="1696.00" departLane="best" departPos="random" departSpeed="max">
        <route edges="l4 l2"/>
    </vehicle>
    <vehicle id="a5a193" type="car" depart="1696.50" departLane="best" departPos="random" departSpeed="max">
        <route edges="l1 -l4"/>
    </vehicle>
    <vehicle id="a5a194" type="car" depart="1697.00" departLane="best" departPos="random" departSpeed="max">
        <route edges="-l2 -l4"/>
    </vehicle>
    <vehicle id="a5a195" type="motor" depart="1697.50" departLane="best" departPos="random" departSpeed="max">
        <route edges="l4 l3"/>
    </vehicle>
    <vehicle id="a5a196" type="car" depart="1698.00" departLane="best" departPos="random" departSpeed="max">
        <route edges="l4 -l1"/>
    </vehicle>
    <vehicle id="a5a197" type="motor" depart="1698.50" departLane="best" departPos="random" departSpeed="max">
        <route edges="-l3 -l4"/>
    </vehicle>
    <vehicle id="a5a198" type="car" depart="1699.00" departLane="best" departPos="random" departSpeed="max">
        <route edges="l4 l2"/>
    </vehicle>
    <vehicle id="a5a200" type="car" depart="1700.00" departLane="best" departPos="random" departSpeed="max">
        <route edges="l1 l3"/>
    </vehicle>
    <vehicle id="a5a202" type="car" depart="1701.00" departLane="best" departPos="random" departSpeed="max">
        <route edges="-l2 -l4"/>
    </vehicle>
    <vehicle id="a5a203" type="car" depart="1701.50" departLane="best" departPos="random" departSpeed="max">
        <route edges="-l2 -l4"/>
    </vehicle>
    <vehicle id="a5a204" type="car" depart="1702.00" departLane="best" departPos="random" departSpeed="max">
        <route edges="-l2 -l4"/>
    </vehicle>
    <vehicle id="a5a205" type="car" depart="1702.50" departLane="best" departPos="random" departSpeed="max">
        <route edges="l4 l3"/>
    </vehicle>
    <vehicle id="a5a207" type="car" depart="1703.50" departLane="best" departPos="random" departSpeed="max">
        <route edges="-l3 -l4"/>
    </vehicle>
    <vehicle id="a5a209" type="car" depart="1704.50" departLane="best" departPos="random" departSpeed="max">
        <route edges="-l3 -l4"/>
    </vehicle>
    <vehicle id="a5a210" type="car" depart="1705.00" departLane="best" departPos="random" departSpeed="max">
        <route edges="l4 l3"/>
    </vehicle>
    <vehicle id="a5a211" type="car" depart="1705.50" departLane="best" departPos="random" departSpeed="max">
        <route edges="-l2 -l1"/>
    </vehicle>
    <vehicle id="a5a212" type="car" depart="1706.00" departLane="best" departPos="random" departSpeed="max">
        <route edges="l1 l2"/>
    </vehicle>
    <vehicle id="a5a213" type="car" depart="1706.50" departLane="best" departPos="random" departSpeed="max">
        <route edges="-l3 -l4"/>
    </vehicle>
    <vehicle id="a5a214" type="car" depart="1707.00" departLane="best" departPos="random" departSpeed="max">
        <route edges="-l2 -l1"/>
    </vehicle>
    <vehicle id="a5a215" type="car" depart="1707.50" departLane="best" departPos="random" departSpeed="max">
        <route edges="l4 l3"/>
    </vehicle>
    <vehicle id="a5a216" type="car" depart="1708.00" departLane="best" departPos="random" departSpeed="max">
        <route edges="l4 -l1"/>
    </vehicle>
    <vehicle id="a5a217" type="motor" depart="1708.50" departLane="best" departPos="random" departSpeed="max">
        <route edges="l4 -l1"/>
    </vehicle>
    <vehicle id="a5a218" type="car" depart="1709.00" departLane="best" departPos="random" departSpeed="max">
        <route edges="-l2 -l1"/>
    </vehicle>
    <vehicle id="a5a220" type="car" depart="1710.00" departLane="best" departPos="random" departSpeed="max">
        <route edges="-l2 -l1"/>
    </vehicle>
    <vehicle id="a5a221" type="car" depart="1710.50" departLane="best" departPos="random" departSpeed="max">
        <route edges="l1 -l4"/>
    </vehicle>
    <vehicle id="a5a223" type="car" depart="1711.50" departLane="best" departPos="random" departSpeed="max">
        <route edges="l4 l3"/>
    </vehicle>
    <vehicle id="a5a225" type="motor" depart="1712.50" departLane="best" departPos="random" departSpeed="max">
        <route edges="-l3 l2"/>
    </vehicle>
    <vehicle id="a5a226" type="motor" depart="1713.00" departLane="best" departPos="random" departSpeed="max">
        <route edges="l1 l2"/>
    </vehicle>
    <vehicle id="a5a227" type="car" depart="1713.50" departLane="best" departPos="random" departSpeed="max">
        <route edges="-l2 -l1"/>
    </vehicle>
    <vehicle id="a5a229" type="car" depart="1714.50" departLane="best" departPos="random" departSpeed="max">
        <route edges="l4 l2"/>
    </vehicle>
    <vehicle id="a5a230" type="car" depart="1715.00" departLane="best" departPos="random" departSpeed="max">
        <route edges="-l3 -l4"/>
    </vehicle>
    <vehicle id="a5a231" type="car" depart="1715.50" departLane="best" departPos="random" departSpeed="max">
        <route edges="l4 l2"/>
    </vehicle>
    <vehicle id="a5a232" type="car" depart="1716.00" departLane="best" departPos="random" departSpeed="max">
        <route edges="-l3 -l1"/>
    </vehicle>
    <vehicle id="a5a234" type="car" depart="1717.00" departLane="best" departPos="random" departSpeed="max">
        <route edges="-l3 -l1"/>
    </vehicle>