<?xml version="1.0" encoding="UTF-8"?>

<!-- generated on 2021-05-11 12:54:47 by Eclipse SUMO duarouter Version 1.9.1
<configuration xmlns:xsi="http://www.w3.org/2001/XMLSchema-instance" xsi:noNamespaceSchemaLocation="http://sumo.dlr.de/xsd/duarouterConfiguration.xsd">

    <input>
        <net-file value="./sumo_files/single_intersection/single_intersection.net.xml"/>
        <additional-files value="./sumo_files/single_intersection/single_intersection.add.xml"/>
        <route-files value="./sumo_files/single_intersection/trips.trips.xml"/>
    </input>

    <output>
        <output-file value="./sumo_files/single_intersection/single_intersection7.rou.xml"/>
        <vtype-output value="vtypeout.xml"/>
        <alternatives-output value="./sumo_files/single_intersection/single_intersection7.rou.alt.xml"/>
    </output>

    <time>
        <begin value="2400.0"/>
        <end value="2800.0"/>
    </time>

    <report>
        <no-warnings value="true"/>
        <ignore-errors value="true"/>
        <no-step-log value="true"/>
    </report>

</configuration>
-->

<routes xmlns:xsi="http://www.w3.org/2001/XMLSchema-instance" xsi:noNamespaceSchemaLocation="http://sumo.dlr.de/xsd/routes_file.xsd">
    <vehicle id="a7a0" type="motor" depart="2400.00" departLane="best" departPos="random" departSpeed="max">
        <route edges="l1 l2"/>
    </vehicle>
    <vehicle id="a7a2" type="car" depart="2401.00" departLane="best" departPos="random" departSpeed="max">
        <route edges="l1 l2"/>
    </vehicle>
    <vehicle id="a7a3" type="car" depart="2401.50" departLane="best" departPos="random" departSpeed="max">
        <route edges="l1 l3"/>
    </vehicle>
    <vehicle id="a7a5" type="car" depart="2402.50" departLane="best" departPos="random" departSpeed="max">
        <route edges="l4 l2"/>
    </vehicle>
    <vehicle id="a7a6" type="car" depart="2403.00" departLane="best" departPos="random" departSpeed="max">
        <route edges="l4 l3"/>
    </vehicle>
    <vehicle id="a7a8" type="car" depart="2404.00" departLane="best" departPos="random" departSpeed="max">
        <route edges="-l2 -l4"/>
    </vehicle>
    <vehicle id="a7a9" type="car" depart="2404.50" departLane="best" departPos="random" departSpeed="max">
        <route edges="-l3 -l1"/>
    </vehicle>
    <vehicle id="a7a10" type="car" depart="2405.00" departLane="best" departPos="random" departSpeed="max">
        <route edges="-l3 l2"/>
    </vehicle>
    <vehicle id="a7a11" type="car" depart="2405.50" departLane="best" departPos="random" departSpeed="max">
        <route edges="l4 l2"/>
    </vehicle>
    <vehicle id="a7a12" type="car" depart="2406.00" departLane="best" departPos="random" departSpeed="max">
        <route edges="l1 -l4"/>
    </vehicle>
    <vehicle id="a7a14" type="car" depart="2407.00" departLane="best" departPos="random" departSpeed="max">
        <route edges="l4 l3"/>
    </vehicle>
    <vehicle id="a7a15" type="car" depart="2407.50" departLane="best" departPos="random" departSpeed="max">
        <route edges="l1 l2"/>
    </vehicle>
    <vehicle id="a7a18" type="car" depart="2409.00" departLane="best" departPos="random" departSpeed="max">
        <route edges="-l3 -l1"/>
    </vehicle>
    <vehicle id="a7a20" type="car" depart="2410.00" departLane="best" departPos="random" departSpeed="max">
        <route edges="-l2 -l1"/>
    </vehicle>
    <vehicle id="a7a21" type="car" depart="2410.50" departLane="best" departPos="random" departSpeed="max">
        <route edges="l1 l2"/>
    </vehicle>
    <vehicle id="a7a22" type="car" depart="2411.00" departLane="best" departPos="random" departSpeed="max">
        <route edges="-l3 l2"/>
    </vehicle>
    <vehicle id="a7a25" type="emergency" depart="2412.50" departLane="best" departPos="random" departSpeed="max">
        <route edges="l1 l3"/>
    </vehicle>
    <vehicle id="a7a26" type="motor" depart="2413.00" departLane="best" departPos="random" departSpeed="max">
        <route edges="l1 -l4"/>
    </vehicle>
    <vehicle id="a7a28" type="car" depart="2414.00" departLane="best" departPos="random" departSpeed="max">
        <route edges="-l2 -l1"/>
    </vehicle>
    <vehicle id="a7a30" type="car" depart="2415.00" departLane="best" departPos="random" departSpeed="max">
        <route edges="l4 l2"/>
    </vehicle>
    <vehicle id="a7a31" type="car" depart="2415.50" departLane="best" departPos="random" departSpeed="max">
        <route edges="-l3 l2"/>
    </vehicle>
    <vehicle id="a7a32" type="car" depart="2416.00" departLane="best" departPos="random" departSpeed="max">
        <route edges="l4 l2"/>
    </vehicle>
    <vehicle id="a7a33" type="car" depart="2416.50" departLane="best" departPos="random" departSpeed="max">
        <route edges="l4 -l1"/>
    </vehicle>
    <vehicle id="a7a35" type="car" depart="2417.50" departLane="best" departPos="random" departSpeed="max">
        <route edges="-l2 l3"/>
    </vehicle>
    <vehicle id="a7a36" type="car" depart="2418.00" departLane="best" departPos="random" departSpeed="max">
        <route edges="l1 l2"/>
    </vehicle>
    <vehicle id="a7a37" type="car" depart="2418.50" departLane="best" departPos="random" departSpeed="max">
        <route edges="-l2 -l1"/>
    </vehicle>
    <vehicle id="a7a38" type="car" depart="2419.00" departLane="best" departPos="random" departSpeed="max">
        <route edges="-l2 -l4"/>
    </vehicle>
    <vehicle id="a7a39" type="car" depart="2419.50" departLane="best" departPos="random" departSpeed="max">
        <route edges="l4 l2"/>
    </vehicle>
    <vehicle id="a7a40" type="car" depart="2420.00" departLane="best" departPos="random" departSpeed="max">
        <route edges="-l3 l2"/>
    </vehicle>
    <vehicle id="a7a43" type="car" depart="2421.50" departLane="best" departPos="random" departSpeed="max">
        <route edges="l4 l2"/>
    </vehicle>
    <vehicle id="a7a44" type="car" depart="2422.00" departLane="best" departPos="random" departSpeed="max">
        <route edges="-l3 -l1"/>
    </vehicle>
    <vehicle id="a7a45" type="car" depart="2422.50" departLane="best" departPos="random" departSpeed="max">
        <route edges="-l2 l3"/>
    </vehicle>
    <vehicle id="a7a46" type="car" depart="2423.00" departLane="best" departPos="random" departSpeed="max">
        <route edges="l4 l3"/>
    </vehicle>
    <vehicle id="a7a47" type="emergency" depart="2423.50" departLane="best" departPos="random" departSpeed="max">
        <route edges="-l3 -l1"/>
    </vehicle>
    <vehicle id="a7a48" type="car" depart="2424.00" departLane="best" departPos="random" departSpeed="max">
        <route edges="l1 l2"/>
    </vehicle>
    <vehicle id="a7a50" type="car" depart="2425.00" departLane="best" departPos="random" departSpeed="max">
        <route edges="-l2 -l4"/>
    </vehicle>
    <vehicle id="a7a53" type="motor" depart="2426.50" departLane="best" departPos="random" departSpeed="max">
        <route edges="-l3 -l1"/>
    </vehicle>
    <vehicle id="a7a54" type="motor" depart="2427.00" departLane="best" departPos="random" departSpeed="max">
        <route edges="-l2 -l4"/>
    </vehicle>
    <vehicle id="a7a56" type="car" depart="2428.00" departLane="best" departPos="random" departSpeed="max">
        <route edges="l1 -l4"/>
    </vehicle>
    <vehicle id="a7a58" type="car" depart="2429.00" departLane="best" departPos="random" departSpeed="max">
        <route edges="l1 l3"/>
    </vehicle>
    <vehicle id="a7a59" type="motor" depart="2429.50" departLane="best" departPos="random" departSpeed="max">
        <route edges="-l2 -l4"/>
    </vehicle>
    <vehicle id="a7a61" type="car" depart="2430.50" departLane="best" departPos="random" departSpeed="max">
        <route edges="l4 l3"/>
    </vehicle>
    <vehicle id="a7a64" type="car" depart="2432.00" departLane="best" departPos="random" departSpeed="max">
        <route edges="l1 l2"/>
    </vehicle>
    <vehicle id="a7a65" type="car" depart="2432.50" departLane="best" departPos="random" departSpeed="max">
        <route edges="l1 l2"/>
    </vehicle>
    <vehicle id="a7a66" type="motor" depart="2433.00" departLane="best" departPos="random" departSpeed="max">
        <route edges="l4 -l1"/>
    </vehicle>
    <vehicle id="a7a67" type="car" depart="2433.50" departLane="best" departPos="random" departSpeed="max">
        <route edges="l4 l3"/>
    </vehicle>
    <vehicle id="a7a68" type="car" depart="2434.00" departLane="best" departPos="random" departSpeed="max">
        <route edges="-l3 -l1"/>
    </vehicle>
    <vehicle id="a7a69" type="motor" depart="2434.50" departLane="best" departPos="random" departSpeed="max">
        <route edges="l1 l2"/>
    </vehicle>
    <vehicle id="a7a70" type="car" depart="2435.00" departLane="best" departPos="random" departSpeed="max">
        <route edges="l4 l2"/>
    </vehicle>
    <vehicle id="a7a71" type="car" depart="2435.50" departLane="best" departPos="random" departSpeed="max">
        <route edges="l4 -l1"/>
    </vehicle>
    <vehicle id="a7a73" type="car" depart="2436.50" departLane="best" departPos="random" departSpeed="max">
        <route edges="-l3 -l4"/>
    </vehicle>
    <vehicle id="a7a74" type="car" depart="2437.00" departLane="best" departPos="random" departSpeed="max">
        <route edges="l4 l2"/>
    </vehicle>
    <vehicle id="a7a75" type="car" depart="2437.50" departLane="best" departPos="random" departSpeed="max">
        <route edges="-l3 -l4"/>
    </vehicle>
    <vehicle id="a7a76" type="car" depart="2438.00" departLane="best" departPos="random" departSpeed="max">
        <route edges="-l2 -l4"/>
    </vehicle>
    <vehicle id="a7a79" type="car" depart="2439.50" departLane="best" departPos="random" departSpeed="max">
        <route edges="l1 l2"/>
    </vehicle>
    <vehicle id="a7a80" type="car" depart="2440.00" departLane="best" departPos="random" departSpeed="max">
        <route edges="l4 l2"/>
    </vehicle>
    <vehicle id="a7a81" type="car" depart="2440.50" departLane="best" departPos="random" departSpeed="max">
        <route edges="-l2 -l4"/>
    </vehicle>
    <vehicle id="a7a82" type="car" depart="2441.00" departLane="best" departPos="random" departSpeed="max">
        <route edges="-l3 -l1"/>
    </vehicle>
    <vehicle id="a7a83" type="car" depart="2441.50" departLane="best" departPos="random" departSpeed="max">
        <route edges="-l3 -l1"/>
    </vehicle>
    <vehicle id="a7a84" type="car" depart="2442.00" departLane="best" departPos="random" departSpeed="max">
        <route edges="l1 -l4"/>
    </vehicle>
    <vehicle id="a7a85" type="car" depart="2442.50" departLane="best" departPos="random" departSpeed="max">
        <route edges="l4 -l1"/>
    </vehicle>
    <vehicle id="a7a87" type="emergency" depart="2443.50" departLane="best" departPos="random" departSpeed="max">
        <route edges="-l2 l3"/>
    </vehicle>
    <vehicle id="a7a88" type="car" depart="2444.00" departLane="best" departPos="random" departSpeed="max">
        <route edges="l4 l2"/>
    </vehicle>
    <vehicle id="a7a89" type="car" depart="2444.50" departLane="best" departPos="random" departSpeed="max">
        <route edges="l1 l2"/>
    </vehicle>
    <vehicle id="a7a90" type="car" depart="2445.00" departLane="best" departPos="random" departSpeed="max">
        <route edges="l4 l3"/>
    </vehicle>
    <vehicle id="a7a91" type="motor" depart="2445.50" departLane="best" departPos="random" departSpeed="max">
        <route edges="-l2 -l4"/>
    </vehicle>
    <vehicle id="a7a92" type="car" depart="2446.00" departLane="best" departPos="random" departSpeed="max">
        <route edges="l4 l2"/>
    </vehicle>
    <vehicle id="a7a95" type="motor" depart="2447.50" departLane="best" departPos="random" departSpeed="max">
        <route edges="l1 l2"/>
    </vehicle>
    <vehicle id="a7a98" type="car" depart="2449.00" departLane="best" departPos="random" departSpeed="max">
        <route edges="-l3 l2"/>
    </vehicle>
    <vehicle id="a7a99" type="car" depart="2449.50" departLane="best" departPos="random" departSpeed="max">
        <route edges="l4 -l1"/>
    </vehicle>
    <vehicle id="a7a100" type="car" depart="2450.00" departLane="best" departPos="random" departSpeed="max">
        <route edges="-l3 l2"/>
    </vehicle>
    <vehicle id="a7a101" type="car" depart="2450.50" departLane="best" departPos="random" departSpeed="max">
        <route edges="-l3 -l1"/>
    </vehicle>
    <vehicle id="a7a102" type="motor" depart="2451.00" departLane="best" departPos="random" departSpeed="max">
        <route edges="l4 l3"/>
    </vehicle>
    <vehicle id="a7a105" type="car" depart="2452.50" departLane="best" departPos="random" departSpeed="max">
        <route edges="l1 -l4"/>
    </vehicle>
    <vehicle id="a7a106" type="car" depart="2453.00" departLane="best" departPos="random" departSpeed="max">
        <route edges="-l3 -l4"/>
    </vehicle>
    <vehicle id="a7a107" type="car" depart="2453.50" departLane="best" departPos="random" departSpeed="max">
        <route edges="-l3 l2"/>
    </vehicle>
    <vehicle id="a7a108" type="car" depart="2454.00" departLane="best" departPos="random" departSpeed="max">
        <route edges="l1 l3"/>
    </vehicle>
    <vehicle id="a7a109" type="car" depart="2454.50" departLane="best" departPos="random" departSpeed="max">
        <route edges="-l3 -l4"/>
    </vehicle>
    <vehicle id="a7a111" type="car" depart="2455.50" departLane="best" departPos="random" departSpeed="max">
        <route edges="-l2 -l1"/>
    </vehicle>
    <vehicle id="a7a112" type="car" depart="2456.00" departLane="best" departPos="random" departSpeed="max">
        <route edges="-l3 l2"/>
    </vehicle>
    <vehicle id="a7a113" type="car" depart="2456.50" departLane="best" departPos="random" departSpeed="max">
        <route edges="l1 l2"/>
    </vehicle>
    <vehicle id="a7a115" type="car" depart="2457.50" departLane="best" departPos="random" departSpeed="max">
        <route edges="-l2 l3"/>
    </vehicle>
    <vehicle id="a7a117" type="car" depart="2458.50" departLane="best" departPos="random" departSpeed="max">
        <route edges="-l2 -l4"/>
    </vehicle>
    <vehicle id="a7a118" type="motor" depart="2459.00" departLane="best" departPos="random" departSpeed="max">
        <route edges="l1 l3"/>
    </vehicle>
    <vehicle id="a7a120" type="car" depart="2460.00" departLane="best" departPos="random" departSpeed="max">
        <route edges="-l2 l3"/>
    </vehicle>
    <vehicle id="a7a121" type="car" depart="2460.50" departLane="best" departPos="random" departSpeed="max">
        <route edges="-l2 l3"/>
    </vehicle>
    <vehicle id="a7a122" type="car" depart="2461.00" departLane="best" departPos="random" departSpeed="max">
        <route edges="l1 l3"/>
    </vehicle>
    <vehicle id="a7a123" type="car" depart="2461.50" departLane="best" departPos="random" departSpeed="max">
        <route edges="-l3 -l1"/>
    </vehicle>
    <vehicle id="a7a124" type="motor" depart="2462.00" departLane="best" departPos="random" departSpeed="max">
        <route edges="l1 l2"/>
    </vehicle>
    <vehicle id="a7a125" type="emergency" depart="2462.50" departLane="best" departPos="random" departSpeed="max">
        <route edges="-l2 l3"/>
    </vehicle>
    <vehicle id="a7a126" type="car" depart="2463.00" departLane="best" departPos="random" departSpeed="max">
        <route edges="l4 l3"/>
    </vehicle>
    <vehicle id="a7a127" type="motor" depart="2463.50" departLane="best" departPos="random" departSpeed="max">
        <route edges="l4 l2"/>
    </vehicle>
    <vehicle id="a7a130" type="car" depart="2465.00" departLane="best" departPos="random" departSpeed="max">
        <route edges="-l3 -l4"/>
    </vehicle>
    <vehicle id="a7a131" type="car" depart="2465.50" departLane="best" departPos="random" departSpeed="max">
        <route edges="l1 -l4"/>
    </vehicle>
    <vehicle id="a7a134" type="car" depart="2467.00" departLane="best" departPos="random" departSpeed="max">
        <route edges="l4 l3"/>
    </vehicle>
    <vehicle id="a7a135" type="car" depart="2467.50" departLane="best" departPos="random" departSpeed="max">
        <route edges="l1 l2"/>
    </vehicle>
    <vehicle id="a7a137" type="car" depart="2468.50" departLane="best" departPos="random" departSpeed="max">
        <route edges="-l2 l3"/>
    </vehicle>
    <vehicle id="a7a138" type="motor" depart="2469.00" departLane="best" departPos="random" departSpeed="max">
        <route edges="l4 -l1"/>
    </vehicle>
    <vehicle id="a7a139" type="car" depart="2469.50" departLane="best" departPos="random" departSpeed="max">
        <route edges="-l2 -l1"/>
    </vehicle>
    <vehicle id="a7a140" type="emergency" depart="2470.00" departLane="best" departPos="random" departSpeed="max">
        <route edges="-l2 -l4"/>
    </vehicle>
    <vehicle id="a7a142" type="car" depart="2471.00" departLane="best" departPos="random" departSpeed="max">
        <route edges="l1 -l4"/>
    </vehicle>
    <vehicle id="a7a143" type="car" depart="2471.50" departLane="best" departPos="random" departSpeed="max">
        <route edges="l1 l3"/>
    </vehicle>
    <vehicle id="a7a145" type="motor" depart="2472.50" departLane="best" departPos="random" departSpeed="max">
        <route edges="-l2 -l4"/>
    </vehicle>
    <vehicle id="a7a146" type="car" depart="2473.00" departLane="best" departPos="random" departSpeed="max">
        <route edges="-l2 l3"/>
    </vehicle>
    <vehicle id="a7a147" type="motor" depart="2473.50" departLane="best" departPos="random" departSpeed="max">
        <route edges="-l3 l2"/>
    </vehicle>
    <vehicle id="a7a150" type="car" depart="2475.00" departLane="best" departPos="random" departSpeed="max">
        <route edges="l4 l3"/>
    </vehicle>
    <vehicle id="a7a151" type="car" depart="2475.50" departLane="best" departPos="random" departSpeed="max">
        <route edges="l1 -l4"/>
    </vehicle>
    <vehicle id="a7a152" type="car" depart="2476.00" departLane="best" departPos="random" departSpeed="max">
        <route edges="l4 -l1"/>
    </vehicle>
    <vehicle id="a7a153" type="car" depart="2476.50" departLane="best" departPos="random" departSpeed="max">
        <route edges="l1 -l4"/>
    </vehicle>
    <vehicle id="a7a155" type="motor" depart="2477.50" departLane="best" departPos="random" departSpeed="max">
        <route edges="l1 l3"/>
    </vehicle>
    <vehicle id="a7a156" type="car" depart="2478.00" departLane="best" departPos="random" departSpeed="max">
        <route edges="l1 l3"/>
    </vehicle>
    <vehicle id="a7a157" type="car" depart="2478.50" departLane="best" departPos="random" departSpeed="max">
        <route edges="l1 l2"/>
    </vehicle>
    <vehicle id="a7a158" type="motor" depart="2479.00" departLane="best" departPos="random" departSpeed="max">
        <route edges="-l2 -l4"/>
    </vehicle>
    <vehicle id="a7a159" type="car" depart="2479.50" departLane="best" departPos="random" departSpeed="max">
        <route edges="l1 -l4"/>
    </vehicle>
    <vehicle id="a7a161" type="motor" depart="2480.50" departLane="best" departPos="random" departSpeed="max">
        <route edges="-l2 -l4"/>
    </vehicle>
    <vehicle id="a7a163" type="car" depart="2481.50" departLane="best" departPos="random" departSpeed="max">
        <route edges="l1 l3"/>
    </vehicle>
    <vehicle id="a7a165" type="car" depart="2482.50" departLane="best" departPos="random" departSpeed="max">
        <route edges="-l2 -l4"/>
    </vehicle>
    <vehicle id="a7a166" type="motor" depart="2483.00" departLane="best" departPos="random" departSpeed="max">
        <route edges="l4 l2"/>
    </vehicle>
    <vehicle id="a7a167" type="car" depart="2483.50" departLane="best" departPos="random" departSpeed="max">
        <route edges="l4 -l1"/>
    </vehicle>
    <vehicle id="a7a170" type="car" depart="2485.00" departLane="best" departPos="random" departSpeed="max">
        <route edges="l1 l3"/>
    </vehicle>
    <vehicle id="a7a171" type="car" depart="2485.50" departLane="best" departPos="random" departSpeed="max">
        <route edges="l4 l3"/>
    </vehicle>
    <vehicle id="a7a172" type="car" depart="2486.00" departLane="best" departPos="random" departSpeed="max">
        <route edges="l1 l2"/>
    </vehicle>
    <vehicle id="a7a173" type="car" depart="2486.50" departLane="best" departPos="random" departSpeed="max">
        <route edges="l1 l3"/>
    </vehicle>
    <vehicle id="a7a175" type="car" depart="2487.50" departLane="best" departPos="random" departSpeed="max">
        <route edges="l1 -l4"/>
    </vehicle>
    <vehicle id="a7a176" type="car" depart="2488.00" departLane="best" departPos="random" departSpeed="max">
        <route edges="l4 l2"/>
    </vehicle>
    <vehicle id="a7a177" type="car" depart="2488.50" departLane="best" departPos="random" departSpeed="max">
        <route edges="-l2 l3"/>
    </vehicle>
    <vehicle id="a7a178" type="emergency" depart="2489.00" departLane="best" departPos="random" departSpeed="max">
        <route edges="l1 l3"/>
    </vehicle>
    <vehicle id="a7a180" type="car" depart="2490.00" departLane="best" departPos="random" departSpeed="max">
        <route edges="-l3 -l1"/>
    </vehicle>
    <vehicle id="a7a181" type="car" depart="2490.50" departLane="best" departPos="random" departSpeed="max">
        <route edges="l1 l3"/>
    </vehicle>
    <vehicle id="a7a183" type="car" depart="2491.50" departLane="best" departPos="random" departSpeed="max">
        <route edges="-l3 l2"/>
    </vehicle>
    <vehicle id="a7a185" type="car" depart="2492.50" departLane="best" departPos="random" departSpeed="max">
        <route edges="-l3 l2"/>
    </vehicle>
    <vehicle id="a7a186" type="car" depart="2493.00" departLane="best" departPos="random" departSpeed="max">
        <route edges="-l3 l2"/>
    </vehicle>
    <vehicle id="a7a187" type="car" depart="2493.50" departLane="best" departPos="random" departSpeed="max">
        <route edges="-l2 -l4"/>
    </vehicle>
    <vehicle id="a7a189" type="car" depart="2494.50" departLane="best" departPos="random" departSpeed="max">
        <route edges="l4 l2"/>
    </vehicle>
    <vehicle id="a7a192" type="car" depart="2496.00" departLane="best" departPos="random" departSpeed="max">
        <route edges="l4 l3"/>
    </vehicle>
    <vehicle id="a7a193" type="car" depart="2496.50" departLane="best" departPos="random" departSpeed="max">
        <route edges="l1 l2"/>
    </vehicle>
    <vehicle id="a7a194" type="car" depart="2497.00" departLane="best" departPos="random" departSpeed="max">
        <route edges="-l3 -l4"/>
    </vehicle>
    <vehicle id="a7a196" type="car" depart="2498.00" departLane="best" departPos="random" departSpeed="max">
        <route edges="-l3 l2"/>
    </vehicle>
    <vehicle id="a7a197" type="motor" depart="2498.50" departLane="best" departPos="random" departSpeed="max">
        <route edges="-l3 l2"/>
    </vehicle>
    <vehicle id="a7a198" type="car" depart="2499.00" departLane="best" departPos="random" departSpeed="max">
        <route edges="l1 l2"/>
    </vehicle>
    <vehicle id="a7a200" type="car" depart="2500.00" departLane="best" departPos="random" departSpeed="max">
        <route edges="-l3 -l1"/>
    </vehicle>
    <vehicle id="a7a201" type="car" depart="2500.50" departLane="best" departPos="random" departSpeed="max">
        <route edges="l4 l3"/>
    </vehicle>
    <vehicle id="a7a202" type="car" depart="2501.00" departLane="best" departPos="random" departSpeed="max">
        <route edges="-l3 -l1"/>
    </vehicle>
    <vehicle id="a7a203" type="car" depart="2501.50" departLane="best" departPos="random" departSpeed="max">
        <route edges="-l3 l2"/>
    </vehicle>
    <vehicle id="a7a205" type="car" depart="2502.50" departLane="best" departPos="random" departSpeed="max">
        <route edges="-l2 -l1"/>
    </vehicle>
    <vehicle id="a7a207" type="car" depart="2503.50" departLane="best" departPos="random" departSpeed="max">
        <route edges="l1 l3"/>
    </vehicle>
    <vehicle id="a7a209" type="car" depart="2504.50" departLane="best" departPos="random" departSpeed="max">
        <route edges="-l3 l2"/>
    </vehicle>
    <vehicle id="a7a211" type="car" depart="2505.50" departLane="best" departPos="random" departSpeed="max">
        <route edges="l1 -l4"/>
    </vehicle>
    <vehicle id="a7a213" type="car" depart="2506.50" departLane="best" departPos="random" departSpeed="max">
        <route edges="-l3 l2"/>
    </vehicle>
    <vehicle id="a7a214" type="car" depart="2507.00" departLane="best" departPos="random" departSpeed="max">
        <route edges="-l2 l3"/>
    </vehicle>
    <vehicle id="a7a216" type="car" depart="2508.00" departLane="best" departPos="random" departSpeed="max">
        <route edges="l4 l3"/>
    </vehicle>
    <vehicle id="a7a217" type="motor" depart="2508.50" departLane="best" departPos="random" departSpeed="max">
        <route edges="-l3 -l4"/>
    </vehicle>
    <vehicle id="a7a218" type="car" depart="2509.00" departLane="best" departPos="random" departSpeed="max">
        <route edges="l4 l3"/>
    </vehicle>
    <vehicle id="a7a219" type="car" depart="2509.50" departLane="best" departPos="random" departSpeed="max">
        <route edges="-l3 -l4"/>
    </vehicle>
    <vehicle id="a7a220" type="car" depart="2510.00" departLane="best" departPos="random" departSpeed="max">
        <route edges="-l2 -l1"/>
    </vehicle>
    <vehicle id="a7a221" type="car" depart="2510.50" departLane="best" departPos="random" departSpeed="max">
        <route edges="l1 -l4"/>
    </vehicle>
    <vehicle id="a7a222" type="car" depart="2511.00" departLane="best" departPos="random" departSpeed="max">
        <route edges="-l3 -l4"/>
    </vehicle>
    <vehicle id="a7a223" type="car" depart="2511.50" departLane="best" departPos="random" departSpeed="max">
        <route edges="-l2 l3"/>
    </vehicle>
    <vehicle id="a7a225" type="motor" depart="2512.50" departLane="best" departPos="random" departSpeed="max">
        <route edges="l1 -l4"/>
    </vehicle>
    <vehicle id="a7a226" type="motor" depart="2513.00" departLane="best" departPos="random" departSpeed="max">
        <route edges="-l2 l3"/>
    </vehicle>
    <vehicle id="a7a227" type="car" depart="2513.50" departLane="best" departPos="random" departSpeed="max">
        <route edges="-l3 -l1"/>
    </vehicle>
    <vehicle id="a7a228" type="motor" depart="2514.00" departLane="best" departPos="random" departSpeed="max">
        <route edges="l1 l2"/>
    </vehicle>
    <vehicle id="a7a230" type="car" depart="2515.00" departLane="best" departPos="random" departSpeed="max">
        <route edges="-l2 -l1"/>
    </vehicle>
    <vehicle id="a7a231" type="car" depart="2515.50" departLane="best" departPos="random" departSpeed="max">
        <route edges="-l2 -l1"/>
    </vehicle>
    <vehicle id="a7a233" type="car" depart="2516.50" departLane="best" departPos="random" departSpeed="max">
        <route edges="-l3 -l4"/>
    </vehicle>
    <vehicle id="a7a234" type="car" depart="2517.00" departLane="best" departPos="random" departSpeed="max">
        <route edges="-l2 l3"/>
    </vehicle>
    <vehicle id="a7a235" type="car" depart="2517.50" departLane="best" departPos="random" departSpeed="max">
        <route edges="-l2 -l1"/>
    </vehicle>
    <vehicle id="a7a238" type="motor" depart="2519.00" departLane="best" departPos="random" departSpeed="max">
        <route edges="l1 l2"/>
    </vehicle>
    <vehicle id="a7a239" type="car" depart="2519.50" departLane="best" departPos="random" departSpeed="max">
        <route edges="l4 l2"/>
    </vehicle>
    <vehicle id="a7a241" type="car" depart="2520.50" departLane="best" departPos="random" departSpeed="max">
        <route edges="-l3 l2"/>
    </vehicle>
    <vehicle id="a7a242" type="car" depart="2521.00" departLane="best" departPos="random" departSpeed="max">
        <route edges="l4 -l1"/>
    </vehicle>
    <vehicle id="a7a243" type="car" depart="2521.50" departLane="best" departPos="random" departSpeed="max">
        <route edges="l4 l2"/>
    </vehicle>
    <vehicle id="a7a244" type="car" depart="2522.00" departLane="best" departPos="random" departSpeed="max">
        <route edges="l4 -l1"/>
    </vehicle>
    <vehicle id="a7a245" type="car" depart="2522.50" departLane="best" departPos="random" departSpeed="max">
        <route edges="-l3 -l4"/>
    </vehicle>
    <vehicle id="a7a246" type="motor" depart="2523.00" departLane="best" departPos="random" departSpeed="max">
        <route edges="l1 l3"/>
    </vehicle>
    <vehicle id="a7a247" type="car" depart="2523.50" departLane="best" departPos="random" departSpeed="max">
        <route edges="-l3 l2"/>
    </vehicle>
    <vehicle id="a7a248" type="car" depart="2524.00" departLane="best" departPos="random" departSpeed="max">
        <route edges="-l3 -l4"/>
    </vehicle>
    <vehicle id="a7a249" type="car" depart="2524.50" departLane="best" departPos="random" departSpeed="max">
        <route edges="-l3 -l1"/>
    </vehicle>
    <vehicle id="a7a250" type="car" depart="2525.00" departLane="best" departPos="random" departSpeed="max">
        <route edges="-l3 l2"/>
    </vehicle>
    <vehicle id="a7a251" type="car" depart="2525.50" departLane="best" departPos="random" departSpeed="max">
        <route edges="-l3 -l4"/>
    </vehicle>
    <vehicle id="a7a252" type="car" depart="2526.00" departLane="best" departPos="random" departSpeed="max">
        <route edges="l1 l2"/>
    </vehicle>
    <vehicle id="a7a253" type="car" depart="2526.50" departLane="best" departPos="random" departSpeed="max">
        <route edges="-l2 l3"/>
    </vehicle>
    <vehicle id="a7a254" type="car" depart="2527.00" departLane="best" departPos="random" departSpeed="max">
        <route edges="-l2 -l1"/>
    </vehicle>
    <vehicle id="a7a255" type="car" depart="2527.50" departLane="best" departPos="random" departSpeed="max">
        <route edges="l1 l3"/>
    </vehicle>