<?xml version="1.0" encoding="UTF-8"?>

<!-- generated on 2021-05-11 12:54:46 by Eclipse SUMO duarouter Version 1.9.1
<configuration xmlns:xsi="http://www.w3.org/2001/XMLSchema-instance" xsi:noNamespaceSchemaLocation="http://sumo.dlr.de/xsd/duarouterConfiguration.xsd">

    <input>
        <net-file value="./sumo_files/single_intersection/single_intersection.net.xml"/>
        <additional-files value="./sumo_files/single_intersection/single_intersection.add.xml"/>
        <route-files value="./sumo_files/single_intersection/trips.trips.xml"/>
    </input>

    <output>
        <output-file value="./sumo_files/single_intersection/single_intersection1.rou.xml"/>
        <vtype-output value="vtypeout.xml"/>
        <alternatives-output value="./sumo_files/single_intersection/single_intersection1.rou.alt.xml"/>
    </output>

    <time>
        <begin value="0.0"/>
        <end value="400.0"/>
    </time>

    <report>
        <no-warnings value="true"/>
        <ignore-errors value="true"/>
        <no-step-log value="true"/>
    </report>

</configuration>
-->

<routes xmlns:xsi="http://www.w3.org/2001/XMLSchema-instance" xsi:noNamespaceSchemaLocation="http://sumo.dlr.de/xsd/routes_file.xsd">
    <vehicle id="a1a0" type="motor" depart="0.00" departLane="best" departPos="random" departSpeed="max">
        <route edges="-l2 -l1"/>
    </vehicle>
    <vehicle id="a1a1" type="car" depart="0.50" departLane="best" departPos="random" departSpeed="max">
        <route edges="-l3 -l1"/>
    </vehicle>
    <vehicle id="a1a2" type="car" depart="1.00" departLane="best" departPos="random" departSpeed="max">
        <route edges="-l3 l2"/>
    </vehicle>
    <vehicle id="a1a3" type="car" depart="1.50" departLane="best" departPos="random" departSpeed="max">
        <route edges="-l3 l2"/>
    </vehicle>
    <vehicle id="a1a4" type="car" depart="2.00" departLane="best" departPos="random" departSpeed="max">
        <route edges="-l3 -l4"/>
    </vehicle>
    <vehicle id="a1a5" type="car" depart="2.50" departLane="best" departPos="random" departSpeed="max">
        <route edges="l1 l2"/>
    </vehicle>
    <vehicle id="a1a7" type="car" depart="3.50" departLane="best" departPos="random" departSpeed="max">
        <route edges="l4 -l1"/>
    </vehicle>
    <vehicle id="a1a8" type="car" depart="4.00" departLane="best" departPos="random" departSpeed="max">
        <route edges="-l3 l2"/>
    </vehicle>
    <vehicle id="a1a9" type="car" depart="4.50" departLane="best" departPos="random" departSpeed="max">
        <route edges="l4 -l1"/>
    </vehicle>
    <vehicle id="a1a10" type="car" depart="5.00" departLane="best" departPos="random" departSpeed="max">
        <route edges="-l2 l3"/>
    </vehicle>
    <vehicle id="a1a11" type="car" depart="5.50" departLane="best" departPos="random" departSpeed="max">
        <route edges="-l2 -l1"/>
    </vehicle>
    <vehicle id="a1a13" type="car" depart="6.50" departLane="best" departPos="random" departSpeed="max">
        <route edges="-l2 -l1"/>
    </vehicle>
    <vehicle id="a1a14" type="car" depart="7.00" departLane="best" departPos="random" departSpeed="max">
        <route edges="-l2 -l4"/>
    </vehicle>
    <vehicle id="a1a15" type="car" depart="7.50" departLane="best" departPos="random" departSpeed="max">
        <route edges="-l3 l2"/>
    </vehicle>
    <vehicle id="a1a16" type="car" depart="8.00" departLane="best" departPos="random" departSpeed="max">
        <route edges="-l3 l2"/>
    </vehicle>
    <vehicle id="a1a17" type="motor" depart="8.50" departLane="best" departPos="random" departSpeed="max">
        <route edges="l1 l3"/>
    </vehicle>
    <vehicle id="a1a18" type="car" depart="9.00" departLane="best" departPos="random" departSpeed="max">
        <route edges="-l3 -l1"/>
    </vehicle>
    <vehicle id="a1a19" type="car" depart="9.50" departLane="best" departPos="random" departSpeed="max">
        <route edges="-l3 -l4"/>
    </vehicle>
    <vehicle id="a1a20" type="car" depart="10.00" departLane="best" departPos="random" departSpeed="max">
        <route edges="-l3 l2"/>
    </vehicle>
    <vehicle id="a1a21" type="car" depart="10.50" departLane="best" departPos="random" departSpeed="max">
        <route edges="l1 l3"/>
    </vehicle>
    <vehicle id="a1a23" type="car" depart="11.50" departLane="best" departPos="random" departSpeed="max">
        <route edges="l4 l2"/>
    </vehicle>
    <vehicle id="a1a25" type="emergency" depart="12.50" departLane="best" departPos="random" departSpeed="max">
        <route edges="-l3 -l1"/>
    </vehicle>
    <vehicle id="a1a27" type="car" depart="13.50" departLane="best" departPos="random" departSpeed="max">
        <route edges="-l2 -l1"/>
    </vehicle>
    <vehicle id="a1a28" type="car" depart="14.00" departLane="best" departPos="random" departSpeed="max">
        <route edges="l4 l3"/>
    </vehicle>
    <vehicle id="a1a29" type="car" depart="14.50" departLane="best" departPos="random" departSpeed="max">
        <route edges="-l3 -l1"/>
    </vehicle>
    <vehicle id="a1a30" type="car" depart="15.00" departLane="best" departPos="random" departSpeed="max">
        <route edges="-l2 l3"/>
    </vehicle>
    <vehicle id="a1a32" type="car" depart="16.00" departLane="best" departPos="random" departSpeed="max">
        <route edges="l4 -l1"/>
    </vehicle>
    <vehicle id="a1a33" type="car" depart="16.50" departLane="best" departPos="random" departSpeed="max">
        <route edges="-l2 -l4"/>
    </vehicle>
    <vehicle id="a1a34" type="motor" depart="17.00" departLane="best" departPos="random" departSpeed="max">
        <route edges="-l2 l3"/>
    </vehicle>
    <vehicle id="a1a38" type="car" depart="19.00" departLane="best" departPos="random" departSpeed="max">
        <route edges="l4 l3"/>
    </vehicle>
    <vehicle id="a1a41" type="motor" depart="20.50" departLane="best" departPos="random" departSpeed="max">
        <route edges="-l3 -l1"/>
    </vehicle>
    <vehicle id="a1a42" type="car" depart="21.00" departLane="best" departPos="random" departSpeed="max">
        <route edges="-l2 l3"/>
    </vehicle>
    <vehicle id="a1a43" type="car" depart="21.50" departLane="best" departPos="random" departSpeed="max">
        <route edges="l4 l3"/>
    </vehicle>
    <vehicle id="a1a44" type="car" depart="22.00" departLane="best" departPos="random" departSpeed="max">
        <route edges="l1 l3"/>
    </vehicle>
    <vehicle id="a1a45" type="car" depart="22.50" departLane="best" departPos="random" departSpeed="max">
        <route edges="l4 l3"/>
    </vehicle>
    <vehicle id="a1a46" type="car" depart="23.00" departLane="best" departPos="random" departSpeed="max">
        <route edges="l4 -l1"/>
    </vehicle>
    <vehicle id="a1a47" type="emergency" depart="23.50" departLane="best" departPos="random" departSpeed="max">
        <route edges="-l3 -l4"/>
    </vehicle>
    <vehicle id="a1a49" type="car" depart="24.50" departLane="best" departPos="random" departSpeed="max">
        <route edges="l1 -l4"/>
    </vehicle>
    <vehicle id="a1a50" type="car" depart="25.00" departLane="best" departPos="random" departSpeed="max">
        <route edges="l4 -l1"/>
    </vehicle>
    <vehicle id="a1a51" type="car" depart="25.50" departLane="best" departPos="random" departSpeed="max">
        <route edges="l1 -l4"/>
    </vehicle>
    <vehicle id="a1a52" type="car" depart="26.00" departLane="best" departPos="random" departSpeed="max">
        <route edges="-l3 -l1"/>
    </vehicle>
    <vehicle id="a1a54" type="motor" depart="27.00" departLane="best" departPos="random" departSpeed="max">
        <route edges="-l2 -l4"/>
    </vehicle>
    <vehicle id="a1a56" type="car" depart="28.00" departLane="best" departPos="random" departSpeed="max">
        <route edges="l4 l3"/>
    </vehicle>
    <vehicle id="a1a57" type="car" depart="28.50" departLane="best" departPos="random" departSpeed="max">
        <route edges="l1 l3"/>
    </vehicle>
    <vehicle id="a1a59" type="motor" depart="29.50" departLane="best" departPos="random" departSpeed="max">
        <route edges="-l2 -l1"/>
    </vehicle>
    <vehicle id="a1a60" type="car" depart="30.00" departLane="best" departPos="random" departSpeed="max">
        <route edges="-l2 -l1"/>
    </vehicle>
    <vehicle id="a1a61" type="car" depart="30.50" departLane="best" departPos="random" departSpeed="max">
        <route edges="l4 l2"/>
    </vehicle>
    <vehicle id="a1a62" type="car" depart="31.00" departLane="best" departPos="random" departSpeed="max">
        <route edges="-l2 -l4"/>
    </vehicle>
    <vehicle id="a1a63" type="car" depart="31.50" departLane="best" departPos="random" departSpeed="max">
        <route edges="-l2 l3"/>
    </vehicle>
    <vehicle id="a1a64" type="car" depart="32.00" departLane="best" departPos="random" departSpeed="max">
        <route edges="-l2 -l1"/>
    </vehicle>
    <vehicle id="a1a65" type="car" depart="32.50" departLane="best" departPos="random" departSpeed="max">
        <route edges="-l2 l3"/>
    </vehicle>
    <vehicle id="a1a67" type="car" depart="33.50" departLane="best" departPos="random" departSpeed="max">
        <route edges="-l3 -l4"/>
    </vehicle>
    <vehicle id="a1a68" type="car" depart="34.00" departLane="best" departPos="random" departSpeed="max">
        <route edges="-l2 -l1"/>
    </vehicle>
    <vehicle id="a1a69" type="motor" depart="34.50" departLane="best" departPos="random" departSpeed="max">
        <route edges="-l3 -l1"/>
    </vehicle>
    <vehicle id="a1a70" type="car" depart="35.00" departLane="best" departPos="random" departSpeed="max">
        <route edges="l1 -l4"/>
    </vehicle>
    <vehicle id="a1a71" type="car" depart="35.50" departLane="best" departPos="random" departSpeed="max">
        <route edges="-l2 -l4"/>
    </vehicle>
    <vehicle id="a1a72" type="car" depart="36.00" departLane="best" departPos="random" departSpeed="max">
        <route edges="l1 l2"/>
    </vehicle>
    <vehicle id="a1a74" type="car" depart="37.00" departLane="best" departPos="random" departSpeed="max">
        <route edges="-l2 -l1"/>
    </vehicle>
    <vehicle id="a1a76" type="car" depart="38.00" departLane="best" departPos="random" departSpeed="max">
        <route edges="-l3 -l4"/>
    </vehicle>
    <vehicle id="a1a77" type="car" depart="38.50" departLane="best" departPos="random" departSpeed="max">
        <route edges="-l3 -l1"/>
    </vehicle>
    <vehicle id="a1a78" type="car" depart="39.00" departLane="best" departPos="random" departSpeed="max">
        <route edges="l1 -l4"/>
    </vehicle>
    <vehicle id="a1a80" type="car" depart="40.00" departLane="best" departPos="random" departSpeed="max">
        <route edges="-l2 -l1"/>
    </vehicle>
    <vehicle id="a1a81" type="car" depart="40.50" departLane="best" departPos="random" departSpeed="max">
        <route edges="l4 -l1"/>
    </vehicle>
    <vehicle id="a1a82" type="car" depart="41.00" departLane="best" departPos="random" departSpeed="max">
        <route edges="-l3 l2"/>
    </vehicle>
    <vehicle id="a1a84" type="car" depart="42.00" departLane="best" departPos="random" departSpeed="max">
        <route edges="-l2 -l4"/>
    </vehicle>
    <vehicle id="a1a85" type="car" depart="42.50" departLane="best" departPos="random" departSpeed="max">
        <route edges="-l3 -l4"/>
    </vehicle>
    <vehicle id="a1a87" type="emergency" depart="43.50" departLane="best" departPos="random" departSpeed="max">
        <route edges="-l3 -l1"/>
    </vehicle>
    <vehicle id="a1a88" type="car" depart="44.00" departLane="best" departPos="random" departSpeed="max">
        <route edges="-l3 -l1"/>
    </vehicle>
    <vehicle id="a1a89" type="car" depart="44.50" departLane="best" departPos="random" departSpeed="max">
        <route edges="-l3 l2"/>
    </vehicle>
    <vehicle id="a1a92" type="car" depart="46.00" departLane="best" departPos="random" departSpeed="max">
        <route edges="l4 -l1"/>
    </vehicle>
    <vehicle id="a1a93" type="car" depart="46.50" departLane="best" departPos="random" departSpeed="max">
        <route edges="l1 l2"/>
    </vehicle>
    <vehicle id="a1a95" type="motor" depart="47.50" departLane="best" departPos="random" departSpeed="max">
        <route edges="l4 -l1"/>
    </vehicle>
    <vehicle id="a1a96" type="car" depart="48.00" departLane="best" departPos="random" departSpeed="max">
        <route edges="l4 l2"/>
    </vehicle>
    <vehicle id="a1a97" type="motor" depart="48.50" departLane="best" departPos="random" departSpeed="max">
        <route edges="l1 l2"/>
    </vehicle>
    <vehicle id="a1a98" type="car" depart="49.00" departLane="best" departPos="random" departSpeed="max">
        <route edges="-l3 l2"/>
    </vehicle>
    <vehicle id="a1a99" type="car" depart="49.50" departLane="best" departPos="random" departSpeed="max">
        <route edges="-l3 -l4"/>
    </vehicle>
    <vehicle id="a1a100" type="car" depart="50.00" departLane="best" departPos="random" departSpeed="max">
        <route edges="l4 l2"/>
    </vehicle>
    <vehicle id="a1a102" type="motor" depart="51.00" departLane="best" departPos="random" departSpeed="max">
        <route edges="-l3 -l4"/>
    </vehicle>
    <vehicle id="a1a103" type="car" depart="51.50" departLane="best" departPos="random" departSpeed="max">
        <route edges="-l2 l3"/>
    </vehicle>
    <vehicle id="a1a104" type="motor" depart="52.00" departLane="best" departPos="random" departSpeed="max">
        <route edges="-l3 l2"/>
    </vehicle>
    <vehicle id="a1a105" type="car" depart="52.50" departLane="best" departPos="random" departSpeed="max">
        <route edges="l4 -l1"/>
    </vehicle>
    <vehicle id="a1a106" type="car" depart="53.00" departLane="best" departPos="random" departSpeed="max">
        <route edges="l1 l2"/>
    </vehicle>
    <vehicle id="a1a107" type="car" depart="53.50" departLane="best" departPos="random" departSpeed="max">
        <route edges="l1 l3"/>
    </vehicle>
    <vehicle id="a1a108" type="car" depart="54.00" departLane="best" departPos="random" departSpeed="max">
        <route edges="l1 -l4"/>
    </vehicle>
    <vehicle id="a1a109" type="car" depart="54.50" departLane="best" departPos="random" departSpeed="max">
        <route edges="l4 -l1"/>
    </vehicle>
    <vehicle id="a1a111" type="car" depart="55.50" departLane="best" departPos="random" departSpeed="max">
        <route edges="l4 l2"/>
    </vehicle>
    <vehicle id="a1a113" type="car" depart="56.50" departLane="best" departPos="random" departSpeed="max">
        <route edges="-l2 l3"/>
    </vehicle>
    <vehicle id="a1a114" type="car" depart="57.00" departLane="best" departPos="random" departSpeed="max">
        <route edges="-l2 -l1"/>
    </vehicle>
    <vehicle id="a1a115" type="car" depart="57.50" departLane="best" departPos="random" departSpeed="max">
        <route edges="-l2 -l1"/>
    </vehicle>
    <vehicle id="a1a116" type="car" depart="58.00" departLane="best" departPos="random" departSpeed="max">
        <route edges="l1 l3"/>
    </vehicle>
    <vehicle id="a1a117" type="car" depart="58.50" departLane="best" departPos="random" departSpeed="max">
        <route edges="l1 l2"/>
    </vehicle>
    <vehicle id="a1a119" type="car" depart="59.50" departLane="best" departPos="random" departSpeed="max">
        <route edges="-l2 l3"/>
    </vehicle>
    <vehicle id="a1a122" type="car" depart="61.00" departLane="best" departPos="random" departSpeed="max">
        <route edges="l4 -l1"/>
    </vehicle>
    <vehicle id="a1a123" type="car" depart="61.50" departLane="best" departPos="random" departSpeed="max">
        <route edges="l1 l2"/>
    </vehicle>
    <vehicle id="a1a124" type="motor" depart="62.00" departLane="best" departPos="random" departSpeed="max">
        <route edges="-l3 -l4"/>
    </vehicle>
    <vehicle id="a1a126" type="car" depart="63.00" departLane="best" departPos="random" departSpeed="max">
        <route edges="-l2 -l1"/>
    </vehicle>
    <vehicle id="a1a128" type="car" depart="64.00" departLane="best" departPos="random" departSpeed="max">
        <route edges="l1 -l4"/>
    </vehicle>
    <vehicle id="a1a129" type="car" depart="64.50" departLane="best" departPos="random" departSpeed="max">
        <route edges="l4 -l1"/>
    </vehicle>
    <vehicle id="a1a130" type="car" depart="65.00" departLane="best" departPos="random" departSpeed="max">
        <route edges="-l2 -l1"/>
    </vehicle>
    <vehicle id="a1a131" type="car" depart="65.50" departLane="best" departPos="random" departSpeed="max">
        <route edges="-l2 -l4"/>
    </vehicle>
    <vehicle id="a1a132" type="car" depart="66.00" departLane="best" departPos="random" departSpeed="max">
        <route edges="-l2 l3"/>
    </vehicle>
    <vehicle id="a1a136" type="car" depart="68.00" departLane="best" departPos="random" departSpeed="max">
        <route edges="-l3 l2"/>
    </vehicle>
    <vehicle id="a1a137" type="car" depart="68.50" departLane="best" departPos="random" departSpeed="max">
        <route edges="l1 -l4"/>
    </vehicle>
    <vehicle id="a1a139" type="car" depart="69.50" departLane="best" departPos="random" departSpeed="max">
        <route edges="l1 -l4"/>
    </vehicle>
    <vehicle id="a1a140" type="emergency" depart="70.00" departLane="best" departPos="random" departSpeed="max">
        <route edges="l1 -l4"/>
    </vehicle>
    <vehicle id="a1a143" type="car" depart="71.50" departLane="best" departPos="random" departSpeed="max">
        <route edges="l1 l2"/>
    </vehicle>
    <vehicle id="a1a144" type="motor" depart="72.00" departLane="best" departPos="random" departSpeed="max">
        <route edges="l1 l2"/>
    </vehicle>
    <vehicle id="a1a145" type="motor" depart="72.50" departLane="best" departPos="random" departSpeed="max">
        <route edges="l4 l3"/>
    </vehicle>
    <vehicle id="a1a146" type="car" depart="73.00" departLane="best" departPos="random" departSpeed="max">
        <route edges="-l3 -l1"/>
    </vehicle>
    <vehicle id="a1a147" type="motor" depart="73.50" departLane="best" departPos="random" departSpeed="max">
        <route edges="-l3 -l1"/>
    </vehicle>
    <vehicle id="a1a148" type="car" depart="74.00" departLane="best" departPos="random" departSpeed="max">
        <route edges="l1 l2"/>
    </vehicle>
    <vehicle id="a1a149" type="car" depart="74.50" departLane="best" departPos="random" departSpeed="max">
        <route edges="l4 -l1"/>
    </vehicle>
    <vehicle id="a1a150" type="car" depart="75.00" departLane="best" departPos="random" departSpeed="max">
        <route edges="-l2 -l4"/>
    </vehicle>
    <vehicle id="a1a152" type="car" depart="76.00" departLane="best" departPos="random" departSpeed="max">
        <route edges="-l3 -l1"/>
    </vehicle>
    <vehicle id="a1a153" type="car" depart="76.50" departLane="best" departPos="random" departSpeed="max">
        <route edges="-l2 -l4"/>
    </vehicle>
    <vehicle id="a1a154" type="car" depart="77.00" departLane="best" departPos="random" departSpeed="max">
        <route edges="l4 -l1"/>
    </vehicle>
    <vehicle id="a1a155" type="motor" depart="77.50" departLane="best" departPos="random" departSpeed="max">
        <route edges="-l3 -l1"/>
    </vehicle>
    <vehicle id="a1a156" type="car" depart="78.00" departLane="best" departPos="random" departSpeed="max">
        <route edges="-l2 l3"/>
    </vehicle>
    <vehicle id="a1a157" type="car" depart="78.50" departLane="best" departPos="random" departSpeed="max">
        <route edges="l4 -l1"/>
    </vehicle>
    <vehicle id="a1a159" type="car" depart="79.50" departLane="best" departPos="random" departSpeed="max">
        <route edges="-l3 -l4"/>
    </vehicle>
    <vehicle id="a1a160" type="car" depart="80.00" departLane="best" departPos="random" departSpeed="max">
        <route edges="l1 -l4"/>
    </vehicle>
    <vehicle id="a1a161" type="motor" depart="80.50" departLane="best" departPos="random" departSpeed="max">
        <route edges="-l2 -l1"/>
    </vehicle>
    <vehicle id="a1a162" type="emergency" depart="81.00" departLane="best" departPos="random" departSpeed="max">
        <route edges="-l2 -l1"/>
    </vehicle>
    <vehicle id="a1a163" type="car" depart="81.50" departLane="best" departPos="random" departSpeed="max">
        <route edges="l1 l3"/>
    </vehicle>
    <vehicle id="a1a164" type="motor" depart="82.00" departLane="best" departPos="random" departSpeed="max">
        <route edges="-l3 -l1"/>
    </vehicle>
    <vehicle id="a1a165" type="car" depart="82.50" departLane="best" departPos="random" departSpeed="max">
        <route edges="l1 l2"/>
    </vehicle>
    <vehicle id="a1a166" type="motor" depart="83.00" departLane="best" departPos="random" departSpeed="max">
        <route edges="-l2 -l4"/>
    </vehicle>
    <vehicle id="a1a168" type="car" depart="84.00" departLane="best" departPos="random" departSpeed="max">
        <route edges="-l3 -l1"/>
    </vehicle>
    <vehicle id="a1a169" type="emergency" depart="84.50" departLane="best" departPos="random" departSpeed="max">
        <route edges="l4 -l1"/>
    </vehicle>
    <vehicle id="a1a170" type="car" depart="85.00" departLane="best" departPos="random" departSpeed="max">
        <route edges="l4 -l1"/>
    </vehicle>
    <vehicle id="a1a171" type="car" depart="85.50" departLane="best" departPos="random" departSpeed="max">
        <route edges="-l3 -l1"/>
    </vehicle>
    <vehicle id="a1a176" type="car" depart="88.00" departLane="best" departPos="random" departSpeed="max">
        <route edges="l4 -l1"/>
    </vehicle>
    <vehicle id="a1a177" type="car" depart="88.50" departLane="best" departPos="random" departSpeed="max">
        <route edges="l4 l2"/>
    </vehicle>
    <vehicle id="a1a178" type="emergency" depart="89.00" departLane="best" departPos="random" departSpeed="max">
        <route edges="-l3 -l4"/>
    </vehicle>
    <vehicle id="a1a180" type="car" depart="90.00" departLane="best" departPos="random" departSpeed="max">
        <route edges="l1 -l4"/>
    </vehicle>
    <vehicle id="a1a181" type="car" depart="90.50" departLane="best" departPos="random" departSpeed="max">
        <route edges="l4 -l1"/>
    </vehicle>
    <vehicle id="a1a183" type="car" depart="91.50" departLane="best" departPos="random" departSpeed="max">
        <route edges="-l2 -l4"/>
    </vehicle>
    <vehicle id="a1a184" type="car" depart="92.00" departLane="best" departPos="random" departSpeed="max">
        <route edges="-l3 -l1"/>
    </vehicle>
    <vehicle id="a1a185" type="car" depart="92.50" departLane="best" departPos="random" departSpeed="max">
        <route edges="-l2 -l1"/>
    </vehicle>
    <vehicle id="a1a186" type="car" depart="93.00" departLane="best" departPos="random" departSpeed="max">
        <route edges="-l3 -l4"/>
    </vehicle>
    <vehicle id="a1a189" type="car" depart="94.50" departLane="best" departPos="random" departSpeed="max">
        <route edges="-l2 -l4"/>
    </vehicle>
    <vehicle id="a1a190" type="car" depart="95.00" departLane="best" departPos="random" departSpeed="max">
        <route edges="l1 -l4"/>
    </vehicle>
    <vehicle id="a1a191" type="motor" depart="95.50" departLane="best" departPos="random" departSpeed="max">
        <route edges="-l3 -l4"/>
    </vehicle>
    <vehicle id="a1a192" type="car" depart="96.00" departLane="best" departPos="random" departSpeed="max">
        <route edges="l4 -l1"/>
    </vehicle>
    <vehicle id="a1a195" type="motor" depart="97.50" departLane="best" departPos="random" departSpeed="max">
        <route edges="-l2 -l4"/>
    </vehicle>
    <vehicle id="a1a197" type="motor" depart="98.50" departLane="best" departPos="random" departSpeed="max">
        <route edges="l4 -l1"/>
    </vehicle>
    <vehicle id="a1a199" type="car" depart="99.50" departLane="best" departPos="random" departSpeed="max">
        <route edges="-l2 -l1"/>
    </vehicle>
    <vehicle id="a1a200" type="car" depart="100.00" departLane="best" departPos="random" departSpeed="max">
        <route edges="-l2 -l4"/>
    </vehicle>
    <vehicle id="a1a201" type="car" depart="100.50" departLane="best" departPos="random" departSpeed="max">
        <route edges="-l3 -l4"/>
    </vehicle>
    <vehicle id="a1a202" type="car" depart="101.00" departLane="best" departPos="random" departSpeed="max">
        <route edges="-l2 l3"/>
    </vehicle>
    <vehicle id="a1a203" type="car" depart="101.50" departLane="best" departPos="random" departSpeed="max">
        <route edges="l1 l3"/>
    </vehicle>
    <vehicle id="a1a204" type="car" depart="102.00" departLane="best" departPos="random" departSpeed="max">
        <route edges="-l2 -l4"/>
    </vehicle>
    <vehicle id="a1a205" type="car" depart="102.50" departLane="best" departPos="random" departSpeed="max">
        <route edges="l4 l2"/>
    </vehicle>
    <vehicle id="a1a207" type="car" depart="103.50" departLane="best" departPos="random" departSpeed="max">
        <route edges="l4 l2"/>
    </vehicle>
    <vehicle id="a1a209" type="car" depart="104.50" departLane="best" departPos="random" departSpeed="max">
        <route edges="l1 l2"/>
    </vehicle>
    <vehicle id="a1a210" type="car" depart="105.00" departLane="best" departPos="random" departSpeed="max">
        <route edges="-l2 -l1"/>
    </vehicle>
    <vehicle id="a1a211" type="car" depart="105.50" departLane="best" departPos="random" departSpeed="max">
        <route edges="-l2 l3"/>
    </vehicle>
    <vehicle id="a1a212" type="car" depart="106.00" departLane="best" departPos="random" departSpeed="max">
        <route edges="l4 -l1"/>
    </vehicle>
    <vehicle id="a1a215" type="car" depart="107.50" departLane="best" departPos="random" departSpeed="max">
        <route edges="l1 l2"/>
    </vehicle>
    <vehicle id="a1a216" type="car" depart="108.00" departLane="best" departPos="random" departSpeed="max">
        <route edges="l1 l2"/>
    </vehicle>
    <vehicle id="a1a217" type="motor" depart="108.50" departLane="best" departPos="random" departSpeed="max">
        <route edges="-l3 -l4"/>
    </vehicle>
    <vehicle id="a1a218" type="car" depart="109.00" departLane="best" departPos="random" departSpeed="max">
        <route edges="-l3 -l1"/>
    </vehicle>
    <vehicle id="a1a219" type="car" depart="109.50" departLane="best" departPos="random" departSpeed="max">
        <route edges="l1 l2"/>
    </vehicle>
    <vehicle id="a1a220" type="car" depart="110.00" departLane="best" departPos="random" departSpeed="max">
        <route edges="-l2 l3"/>
    </vehicle>
    <vehicle id="a1a221" type="car" depart="110.50" departLane="best" departPos="random" departSpeed="max">
        <route edges="l4 l2"/>
    </vehicle>
    <vehicle id="a1a222" type="car" depart="111.00" departLane="best" departPos="random" departSpeed="max">
        <route edges="l1 l2"/>
    </vehicle>
    <vehicle id="a1a223" type="car" depart="111.50" departLane="best" departPos="random" departSpeed="max">
        <route edges="l4 -l1"/>
    </vehicle>
    <vehicle id="a1a224" type="car" depart="112.00" departLane="best" departPos="random" departSpeed="max">
        <route edges="l4 l3"/>
    </vehicle>
    <vehicle id="a1a225" type="motor" depart="112.50" departLane="best" departPos="random" departSpeed="max">
        <route edges="-l3 l2"/>
    </vehicle>
    <vehicle id="a1a227" type="car" depart="113.50" departLane="best" departPos="random" departSpeed="max">
        <route edges="-l2 -l4"/>
    </vehicle>
    <vehicle id="a1a228" type="motor" depart="114.00" departLane="best" departPos="random" departSpeed="max">
        <route edges="l4 l3"/>
    </vehicle>
    <vehicle id="a1a229" type="car" depart="114.50" departLane="best" departPos="random" departSpeed="max">
        <route edges="-l2 -l1"/>
    </vehicle>
    <vehicle id="a1a230" type="car" depart="115.00" departLane="best" departPos="random" departSpeed="max">
        <route edges="-l2 -l1"/>
    </vehicle>
    <vehicle id="a1a231" type="car" depart="115.50" departLane="best" departPos="random" departSpeed="max">
        <route edges="-l3 l2"/>
    </vehicle>
    <vehicle id="a1a236" type="emergency" depart="118.00" departLane="best" departPos="random" departSpeed="max">
        <route edges="-l3 -l1"/>
    </vehicle>
    <vehicle id="a1a237" type="car" depart="118.50" departLane="best" departPos="random" departSpeed="max">
        <route edges="l4 l3"/>
    </vehicle>
    <vehicle id="a1a239" type="car" depart="119.50" departLane="best" departPos="random" departSpeed="max">
        <route edges="-l3 l2"/>
    </vehicle>
    <vehicle id="a1a241" type="car" depart="120.50" departLane="best" departPos="random" departSpeed="max">
        <route edges="l1 l2"/>
    </vehicle>
    <vehicle id="a1a243" type="car" depart="121.50" departLane="best" departPos="random" departSpeed="max">
        <route edges="l4 -l1"/>
    </vehicle>
    <vehicle id="a1a244" type="car" depart="122.00" departLane="best" departPos="random" departSpeed="max">
        <route edges="-l2 -l1"/>
    </vehicle>
    <vehicle id="a1a245" type="car" depart="122.50" departLane="best" departPos="random" departSpeed="max">
        <route edges="-l2 -l1"/>
    </vehicle>
    <vehicle id="a1a247" type="car" depart="123.50" departLane="best" departPos="random" departSpeed="max">
        <route edges="-l2 -l1"/>
    </vehicle>
    <vehicle id="a1a251" type="car" depart="125.50" departLane="best" departPos="random" departSpeed="max">
        <route edges="-l3 l2"/>
    </vehicle>
    <vehicle id="a1a252" type="car" depart="126.00" departLane="best" departPos="random" departSpeed="max">
        <route edges="-l3 l2"/>
    </vehicle>
    <vehicle id="a1a257" type="car" depart="128.50" departLane="best" departPos="random" departSpeed="max">
        <route edges="l4 l2"/>
    </vehicle>
    <vehicle id="a1a258" type="car" depart="129.00" departLane="best" departPos="random" departSpeed="max">
        <route edges="-l2 -l1"/>
    </vehicle>