<?xml version="1.0" encoding="UTF-8"?>

<!-- generated on 2021-05-11 12:54:47 by Eclipse SUMO duarouter Version 1.9.1
<configuration xmlns:xsi="http://www.w3.org/2001/XMLSchema-instance" xsi:noNamespaceSchemaLocation="http://sumo.dlr.de/xsd/duarouterConfiguration.xsd">

    <input>
        <net-file value="./sumo_files/single_intersection/single_intersection.net.xml"/>
        <additional-files value="./sumo_files/single_intersection/single_intersection.add.xml"/>
        <route-files value="./sumo_files/single_intersection/trips.trips.xml"/>
    </input>

    <output>
        <output-file value="./sumo_files/single_intersection/single_intersection6.rou.xml"/>
        <vtype-output value="vtypeout.xml"/>
        <alternatives-output value="./sumo_files/single_intersection/single_intersection6.rou.alt.xml"/>
    </output>

    <time>
        <begin value="2000.0"/>
        <end value="2400.0"/>
    </time>

    <report>
        <no-warnings value="true"/>
        <ignore-errors value="true"/>
        <no-step-log value="true"/>
    </report>

</configuration>
-->

<routes xmlns:xsi="http://www.w3.org/2001/XMLSchema-instance" xsi:noNamespaceSchemaLocation="http://sumo.dlr.de/xsd/routes_file.xsd">
    <vehicle id="a6a1" type="car" depart="2000.50" departLane="best" departPos="random" departSpeed="max">
        <route edges="-l3 l2"/>
    </vehicle>
    <vehicle id="a6a3" type="car" depart="2001.50" departLane="best" departPos="random" departSpeed="max">
        <route edges="-l3 l2"/>
    </vehicle>
    <vehicle id="a6a4" type="car" depart="2002.00" departLane="best" departPos="random" departSpeed="max">
        <route edges="-l2 -l4"/>
    </vehicle>
    <vehicle id="a6a5" type="car" depart="2002.50" departLane="best" departPos="random" departSpeed="max">
        <route edges="l1 -l4"/>
    </vehicle>
    <vehicle id="a6a10" type="car" depart="2005.00" departLane="best" departPos="random" departSpeed="max">
        <route edges="l4 l3"/>
    </vehicle>
    <vehicle id="a6a11" type="car" depart="2005.50" departLane="best" departPos="random" departSpeed="max">
        <route edges="l4 -l1"/>
    </vehicle>
    <vehicle id="a6a12" type="car" depart="2006.00" departLane="best" departPos="random" departSpeed="max">
        <route edges="-l3 -l4"/>
    </vehicle>
    <vehicle id="a6a13" type="car" depart="2006.50" departLane="best" departPos="random" departSpeed="max">
        <route edges="-l2 l3"/>
    </vehicle>
    <vehicle id="a6a14" type="car" depart="2007.00" departLane="best" departPos="random" departSpeed="max">
        <route edges="-l2 -l1"/>
    </vehicle>
    <vehicle id="a6a15" type="car" depart="2007.50" departLane="best" departPos="random" departSpeed="max">
        <route edges="l1 l3"/>
    </vehicle>
    <vehicle id="a6a16" type="car" depart="2008.00" departLane="best" departPos="random" departSpeed="max">
        <route edges="-l3 -l4"/>
    </vehicle>
    <vehicle id="a6a17" type="motor" depart="2008.50" departLane="best" departPos="random" departSpeed="max">
        <route edges="l4 -l1"/>
    </vehicle>
    <vehicle id="a6a19" type="car" depart="2009.50" departLane="best" departPos="random" departSpeed="max">
        <route edges="l4 -l1"/>
    </vehicle>
    <vehicle id="a6a21" type="car" depart="2010.50" departLane="best" departPos="random" departSpeed="max">
        <route edges="l4 l2"/>
    </vehicle>
    <vehicle id="a6a22" type="car" depart="2011.00" departLane="best" departPos="random" departSpeed="max">
        <route edges="-l2 l3"/>
    </vehicle>
    <vehicle id="a6a23" type="car" depart="2011.50" departLane="best" departPos="random" departSpeed="max">
        <route edges="-l2 -l1"/>
    </vehicle>
    <vehicle id="a6a24" type="motor" depart="2012.00" departLane="best" departPos="random" departSpeed="max">
        <route edges="l1 l3"/>
    </vehicle>
    <vehicle id="a6a25" type="emergency" depart="2012.50" departLane="best" departPos="random" departSpeed="max">
        <route edges="l1 l2"/>
    </vehicle>
    <vehicle id="a6a26" type="motor" depart="2013.00" departLane="best" departPos="random" departSpeed="max">
        <route edges="-l2 l3"/>
    </vehicle>
    <vehicle id="a6a27" type="car" depart="2013.50" departLane="best" departPos="random" departSpeed="max">
        <route edges="-l3 -l1"/>
    </vehicle>
    <vehicle id="a6a28" type="car" depart="2014.00" departLane="best" departPos="random" departSpeed="max">
        <route edges="l1 l3"/>
    </vehicle>
    <vehicle id="a6a29" type="car" depart="2014.50" departLane="best" departPos="random" departSpeed="max">
        <route edges="-l3 -l1"/>
    </vehicle>
    <vehicle id="a6a30" type="car" depart="2015.00" departLane="best" departPos="random" departSpeed="max">
        <route edges="l1 l2"/>
    </vehicle>
    <vehicle id="a6a31" type="car" depart="2015.50" departLane="best" departPos="random" departSpeed="max">
        <route edges="-l3 -l4"/>
    </vehicle>
    <vehicle id="a6a32" type="car" depart="2016.00" departLane="best" departPos="random" departSpeed="max">
        <route edges="l1 l2"/>
    </vehicle>
    <vehicle id="a6a33" type="car" depart="2016.50" departLane="best" departPos="random" departSpeed="max">
        <route edges="-l2 -l1"/>
    </vehicle>
    <vehicle id="a6a34" type="motor" depart="2017.00" departLane="best" departPos="random" departSpeed="max">
        <route edges="-l3 l2"/>
    </vehicle>
    <vehicle id="a6a35" type="car" depart="2017.50" departLane="best" departPos="random" departSpeed="max">
        <route edges="-l3 l2"/>
    </vehicle>
    <vehicle id="a6a37" type="car" depart="2018.50" departLane="best" departPos="random" departSpeed="max">
        <route edges="l1 -l4"/>
    </vehicle>
    <vehicle id="a6a38" type="car" depart="2019.00" departLane="best" departPos="random" departSpeed="max">
        <route edges="l1 l3"/>
    </vehicle>
    <vehicle id="a6a39" type="car" depart="2019.50" departLane="best" departPos="random" departSpeed="max">
        <route edges="-l3 -l1"/>
    </vehicle>
    <vehicle id="a6a40" type="car" depart="2020.00" departLane="best" departPos="random" departSpeed="max">
        <route edges="l1 l3"/>
    </vehicle>
    <vehicle id="a6a41" type="motor" depart="2020.50" departLane="best" departPos="random" departSpeed="max">
        <route edges="l1 -l4"/>
    </vehicle>
    <vehicle id="a6a42" type="car" depart="2021.00" departLane="best" departPos="random" departSpeed="max">
        <route edges="-l2 -l1"/>
    </vehicle>
    <vehicle id="a6a43" type="car" depart="2021.50" departLane="best" departPos="random" departSpeed="max">
        <route edges="-l3 -l1"/>
    </vehicle>
    <vehicle id="a6a44" type="car" depart="2022.00" departLane="best" departPos="random" departSpeed="max">
        <route edges="l1 l2"/>
    </vehicle>
    <vehicle id="a6a45" type="car" depart="2022.50" departLane="best" departPos="random" departSpeed="max">
        <route edges="l4 -l1"/>
    </vehicle>
    <vehicle id="a6a46" type="car" depart="2023.00" departLane="best" departPos="random" departSpeed="max">
        <route edges="l1 -l4"/>
    </vehicle>
    <vehicle id="a6a48" type="car" depart="2024.00" departLane="best" departPos="random" departSpeed="max">
        <route edges="l4 l2"/>
    </vehicle>
    <vehicle id="a6a49" type="car" depart="2024.50" departLane="best" departPos="random" departSpeed="max">
        <route edges="-l3 -l1"/>
    </vehicle>
    <vehicle id="a6a50" type="car" depart="2025.00" departLane="best" departPos="random" departSpeed="max">
        <route edges="l1 l2"/>
    </vehicle>
    <vehicle id="a6a51" type="car" depart="2025.50" departLane="best" departPos="random" departSpeed="max">
        <route edges="l1 l3"/>
    </vehicle>
    <vehicle id="a6a52" type="car" depart="2026.00" departLane="best" departPos="random" departSpeed="max">
        <route edges="-l3 -l1"/>
    </vehicle>
    <vehicle id="a6a53" type="motor" depart="2026.50" departLane="best" departPos="random" departSpeed="max">
        <route edges="-l3 -l1"/>
    </vehicle>
    <vehicle id="a6a55" type="car" depart="2027.50" departLane="best" departPos="random" departSpeed="max">
        <route edges="l1 l3"/>
    </vehicle>
    <vehicle id="a6a57" type="car" depart="2028.50" departLane="best" departPos="random" departSpeed="max">
        <route edges="l4 -l1"/>
    </vehicle>
    <vehicle id="a6a58" type="car" depart="2029.00" departLane="best" departPos="random" departSpeed="max">
        <route edges="-l3 l2"/>
    </vehicle>
    <vehicle id="a6a59" type="motor" depart="2029.50" departLane="best" departPos="random" departSpeed="max">
        <route edges="l1 -l4"/>
    </vehicle>
    <vehicle id="a6a60" type="car" depart="2030.00" departLane="best" departPos="random" departSpeed="max">
        <route edges="-l2 l3"/>
    </vehicle>
    <vehicle id="a6a62" type="car" depart="2031.00" departLane="best" departPos="random" departSpeed="max">
        <route edges="-l3 -l1"/>
    </vehicle>
    <vehicle id="a6a63" type="car" depart="2031.50" departLane="best" departPos="random" departSpeed="max">
        <route edges="-l3 -l1"/>
    </vehicle>
    <vehicle id="a6a64" type="car" depart="2032.00" departLane="best" departPos="random" departSpeed="max">
        <route edges="-l2 -l4"/>
    </vehicle>
    <vehicle id="a6a65" type="car" depart="2032.50" departLane="best" departPos="random" departSpeed="max">
        <route edges="-l3 -l1"/>
    </vehicle>
    <vehicle id="a6a66" type="motor" depart="2033.00" departLane="best" departPos="random" departSpeed="max">
        <route edges="l1 l3"/>
    </vehicle>
    <vehicle id="a6a67" type="car" depart="2033.50" departLane="best" departPos="random" departSpeed="max">
        <route edges="-l3 l2"/>
    </vehicle>
    <vehicle id="a6a68" type="car" depart="2034.00" departLane="best" departPos="random" departSpeed="max">
        <route edges="-l3 -l4"/>
    </vehicle>
    <vehicle id="a6a70" type="car" depart="2035.00" departLane="best" departPos="random" departSpeed="max">
        <route edges="-l3 -l1"/>
    </vehicle>
    <vehicle id="a6a71" type="car" depart="2035.50" departLane="best" departPos="random" departSpeed="max">
        <route edges="l1 l3"/>
    </vehicle>
    <vehicle id="a6a72" type="car" depart="2036.00" departLane="best" departPos="random" departSpeed="max">
        <route edges="l1 l3"/>
    </vehicle>
    <vehicle id="a6a73" type="car" depart="2036.50" departLane="best" departPos="random" departSpeed="max">
        <route edges="l4 l2"/>
    </vehicle>
    <vehicle id="a6a76" type="car" depart="2038.00" departLane="best" departPos="random" departSpeed="max">
        <route edges="l4 l2"/>
    </vehicle>
    <vehicle id="a6a77" type="car" depart="2038.50" departLane="best" departPos="random" departSpeed="max">
        <route edges="l1 l3"/>
    </vehicle>
    <vehicle id="a6a79" type="car" depart="2039.50" departLane="best" departPos="random" departSpeed="max">
        <route edges="l4 l3"/>
    </vehicle>
    <vehicle id="a6a80" type="car" depart="2040.00" departLane="best" departPos="random" departSpeed="max">
        <route edges="-l3 -l1"/>
    </vehicle>
    <vehicle id="a6a81" type="car" depart="2040.50" departLane="best" departPos="random" departSpeed="max">
        <route edges="-l3 -l1"/>
    </vehicle>
    <vehicle id="a6a82" type="car" depart="2041.00" departLane="best" departPos="random" departSpeed="max">
        <route edges="-l3 -l1"/>
    </vehicle>
    <vehicle id="a6a83" type="car" depart="2041.50" departLane="best" departPos="random" departSpeed="max">
        <route edges="l4 l3"/>
    </vehicle>
    <vehicle id="a6a85" type="car" depart="2042.50" departLane="best" departPos="random" departSpeed="max">
        <route edges="l4 -l1"/>
    </vehicle>
    <vehicle id="a6a86" type="car" depart="2043.00" departLane="best" departPos="random" departSpeed="max">
        <route edges="-l3 l2"/>
    </vehicle>
    <vehicle id="a6a87" type="emergency" depart="2043.50" departLane="best" departPos="random" departSpeed="max">
        <route edges="-l3 -l4"/>
    </vehicle>
    <vehicle id="a6a89" type="car" depart="2044.50" departLane="best" departPos="random" departSpeed="max">
        <route edges="l4 -l1"/>
    </vehicle>
    <vehicle id="a6a91" type="motor" depart="2045.50" departLane="best" departPos="random" departSpeed="max">
        <route edges="l4 -l1"/>
    </vehicle>
    <vehicle id="a6a92" type="car" depart="2046.00" departLane="best" departPos="random" departSpeed="max">
        <route edges="l1 -l4"/>
    </vehicle>
    <vehicle id="a6a93" type="car" depart="2046.50" departLane="best" departPos="random" departSpeed="max">
        <route edges="-l2 -l4"/>
    </vehicle>
    <vehicle id="a6a94" type="car" depart="2047.00" departLane="best" departPos="random" departSpeed="max">
        <route edges="-l2 -l4"/>
    </vehicle>
    <vehicle id="a6a96" type="car" depart="2048.00" departLane="best" departPos="random" departSpeed="max">
        <route edges="-l2 -l4"/>
    </vehicle>
    <vehicle id="a6a98" type="car" depart="2049.00" departLane="best" departPos="random" departSpeed="max">
        <route edges="-l3 -l1"/>
    </vehicle>
    <vehicle id="a6a99" type="car" depart="2049.50" departLane="best" departPos="random" departSpeed="max">
        <route edges="l4 l2"/>
    </vehicle>
    <vehicle id="a6a101" type="car" depart="2050.50" departLane="best" departPos="random" departSpeed="max">
        <route edges="l1 l3"/>
    </vehicle>
    <vehicle id="a6a103" type="car" depart="2051.50" departLane="best" departPos="random" departSpeed="max">
        <route edges="-l3 -l1"/>
    </vehicle>
    <vehicle id="a6a104" type="motor" depart="2052.00" departLane="best" departPos="random" departSpeed="max">
        <route edges="-l2 -l4"/>
    </vehicle>
    <vehicle id="a6a105" type="car" depart="2052.50" departLane="best" departPos="random" departSpeed="max">
        <route edges="-l2 l3"/>
    </vehicle>
    <vehicle id="a6a107" type="car" depart="2053.50" departLane="best" departPos="random" departSpeed="max">
        <route edges="l1 -l4"/>
    </vehicle>
    <vehicle id="a6a108" type="car" depart="2054.00" departLane="best" departPos="random" departSpeed="max">
        <route edges="-l3 l2"/>
    </vehicle>
    <vehicle id="a6a109" type="car" depart="2054.50" departLane="best" departPos="random" departSpeed="max">
        <route edges="-l2 l3"/>
    </vehicle>
    <vehicle id="a6a110" type="car" depart="2055.00" departLane="best" departPos="random" departSpeed="max">
        <route edges="l4 l3"/>
    </vehicle>
    <vehicle id="a6a111" type="car" depart="2055.50" departLane="best" departPos="random" departSpeed="max">
        <route edges="l1 l2"/>
    </vehicle>
    <vehicle id="a6a112" type="car" depart="2056.00" departLane="best" departPos="random" departSpeed="max">
        <route edges="-l2 -l1"/>
    </vehicle>
    <vehicle id="a6a114" type="car" depart="2057.00" departLane="best" departPos="random" departSpeed="max">
        <route edges="-l2 l3"/>
    </vehicle>
    <vehicle id="a6a115" type="car" depart="2057.50" departLane="best" departPos="random" departSpeed="max">
        <route edges="-l2 l3"/>
    </vehicle>
    <vehicle id="a6a116" type="car" depart="2058.00" departLane="best" departPos="random" departSpeed="max">
        <route edges="-l3 -l4"/>
    </vehicle>
    <vehicle id="a6a117" type="car" depart="2058.50" departLane="best" departPos="random" departSpeed="max">
        <route edges="-l2 -l1"/>
    </vehicle>
    <vehicle id="a6a118" type="motor" depart="2059.00" departLane="best" departPos="random" departSpeed="max">
        <route edges="-l3 l2"/>
    </vehicle>
    <vehicle id="a6a119" type="car" depart="2059.50" departLane="best" departPos="random" departSpeed="max">
        <route edges="-l3 -l4"/>
    </vehicle>
    <vehicle id="a6a122" type="car" depart="2061.00" departLane="best" departPos="random" departSpeed="max">
        <route edges="l1 l2"/>
    </vehicle>
    <vehicle id="a6a123" type="car" depart="2061.50" departLane="best" departPos="random" departSpeed="max">
        <route edges="-l3 -l1"/>
    </vehicle>
    <vehicle id="a6a125" type="emergency" depart="2062.50" departLane="best" departPos="random" departSpeed="max">
        <route edges="-l2 -l1"/>
    </vehicle>
    <vehicle id="a6a126" type="car" depart="2063.00" departLane="best" departPos="random" departSpeed="max">
        <route edges="-l2 -l4"/>
    </vehicle>
    <vehicle id="a6a127" type="motor" depart="2063.50" departLane="best" departPos="random" departSpeed="max">
        <route edges="-l3 -l1"/>
    </vehicle>
    <vehicle id="a6a128" type="car" depart="2064.00" departLane="best" departPos="random" departSpeed="max">
        <route edges="-l3 -l4"/>
    </vehicle>
    <vehicle id="a6a129" type="car" depart="2064.50" departLane="best" departPos="random" departSpeed="max">
        <route edges="l1 -l4"/>
    </vehicle>
    <vehicle id="a6a130" type="car" depart="2065.00" departLane="best" departPos="random" departSpeed="max">
        <route edges="l1 l3"/>
    </vehicle>
    <vehicle id="a6a131" type="car" depart="2065.50" departLane="best" departPos="random" departSpeed="max">
        <route edges="-l2 -l1"/>
    </vehicle>
    <vehicle id="a6a132" type="car" depart="2066.00" departLane="best" departPos="random" departSpeed="max">
        <route edges="-l3 -l1"/>
    </vehicle>
    <vehicle id="a6a133" type="car" depart="2066.50" departLane="best" departPos="random" departSpeed="max">
        <route edges="-l3 -l1"/>
    </vehicle>
    <vehicle id="a6a134" type="car" depart="2067.00" departLane="best" departPos="random" departSpeed="max">
        <route edges="-l3 -l4"/>
    </vehicle>
    <vehicle id="a6a136" type="car" depart="2068.00" departLane="best" departPos="random" departSpeed="max">
        <route edges="-l3 -l4"/>
    </vehicle>
    <vehicle id="a6a137" type="car" depart="2068.50" departLane="best" departPos="random" departSpeed="max">
        <route edges="-l3 -l4"/>
    </vehicle>
    <vehicle id="a6a138" type="motor" depart="2069.00" departLane="best" departPos="random" departSpeed="max">
        <route edges="l4 l2"/>
    </vehicle>
    <vehicle id="a6a140" type="emergency" depart="2070.00" departLane="best" departPos="random" departSpeed="max">
        <route edges="-l2 l3"/>
    </vehicle>
    <vehicle id="a6a141" type="motor" depart="2070.50" departLane="best" departPos="random" departSpeed="max">
        <route edges="-l3 -l4"/>
    </vehicle>
    <vehicle id="a6a142" type="car" depart="2071.00" departLane="best" departPos="random" departSpeed="max">
        <route edges="-l3 -l4"/>
    </vehicle>
    <vehicle id="a6a143" type="car" depart="2071.50" departLane="best" departPos="random" departSpeed="max">
        <route edges="-l2 -l1"/>
    </vehicle>
    <vehicle id="a6a144" type="motor" depart="2072.00" departLane="best" departPos="random" departSpeed="max">
        <route edges="l1 -l4"/>
    </vehicle>
    <vehicle id="a6a145" type="motor" depart="2072.50" departLane="best" departPos="random" departSpeed="max">
        <route edges="-l3 l2"/>
    </vehicle>
    <vehicle id="a6a146" type="car" depart="2073.00" departLane="best" departPos="random" departSpeed="max">
        <route edges="l1 -l4"/>
    </vehicle>
    <vehicle id="a6a147" type="motor" depart="2073.50" departLane="best" departPos="random" departSpeed="max">
        <route edges="l4 l2"/>
    </vehicle>
    <vehicle id="a6a148" type="car" depart="2074.00" departLane="best" departPos="random" departSpeed="max">
        <route edges="-l2 -l4"/>
    </vehicle>
    <vehicle id="a6a149" type="car" depart="2074.50" departLane="best" departPos="random" departSpeed="max">
        <route edges="l4 l3"/>
    </vehicle>
    <vehicle id="a6a150" type="car" depart="2075.00" departLane="best" departPos="random" departSpeed="max">
        <route edges="-l3 -l4"/>
    </vehicle>
    <vehicle id="a6a151" type="car" depart="2075.50" departLane="best" departPos="random" departSpeed="max">
        <route edges="-l3 -l1"/>
    </vehicle>
    <vehicle id="a6a153" type="car" depart="2076.50" departLane="best" departPos="random" departSpeed="max">
        <route edges="-l3 l2"/>
    </vehicle>
    <vehicle id="a6a154" type="car" depart="2077.00" departLane="best" departPos="random" departSpeed="max">
        <route edges="-l3 l2"/>
    </vehicle>
    <vehicle id="a6a155" type="motor" depart="2077.50" departLane="best" departPos="random" departSpeed="max">
        <route edges="l4 -l1"/>
    </vehicle>
    <vehicle id="a6a156" type="car" depart="2078.00" departLane="best" departPos="random" departSpeed="max">
        <route edges="-l3 l2"/>
    </vehicle>
    <vehicle id="a6a158" type="motor" depart="2079.00" departLane="best" departPos="random" departSpeed="max">
        <route edges="l4 l3"/>
    </vehicle>
    <vehicle id="a6a160" type="car" depart="2080.00" departLane="best" departPos="random" departSpeed="max">
        <route edges="-l2 -l4"/>
    </vehicle>
    <vehicle id="a6a161" type="motor" depart="2080.50" departLane="best" departPos="random" departSpeed="max">
        <route edges="-l3 l2"/>
    </vehicle>
    <vehicle id="a6a162" type="emergency" depart="2081.00" departLane="best" departPos="random" departSpeed="max">
        <route edges="l4 l2"/>
    </vehicle>
    <vehicle id="a6a166" type="motor" depart="2083.00" departLane="best" departPos="random" departSpeed="max">
        <route edges="l4 l2"/>
    </vehicle>
    <vehicle id="a6a167" type="car" depart="2083.50" departLane="best" departPos="random" departSpeed="max">
        <route edges="-l2 -l4"/>
    </vehicle>
    <vehicle id="a6a169" type="emergency" depart="2084.50" departLane="best" departPos="random" departSpeed="max">
        <route edges="l1 -l4"/>
    </vehicle>
    <vehicle id="a6a171" type="car" depart="2085.50" departLane="best" departPos="random" departSpeed="max">
        <route edges="-l2 l3"/>
    </vehicle>
    <vehicle id="a6a173" type="car" depart="2086.50" departLane="best" departPos="random" departSpeed="max">
        <route edges="l4 -l1"/>
    </vehicle>
    <vehicle id="a6a176" type="car" depart="2088.00" departLane="best" departPos="random" departSpeed="max">
        <route edges="l1 -l4"/>
    </vehicle>
    <vehicle id="a6a177" type="car" depart="2088.50" departLane="best" departPos="random" departSpeed="max">
        <route edges="l1 -l4"/>
    </vehicle>
    <vehicle id="a6a178" type="emergency" depart="2089.00" departLane="best" departPos="random" departSpeed="max">
        <route edges="l1 -l4"/>
    </vehicle>
    <vehicle id="a6a180" type="car" depart="2090.00" departLane="best" departPos="random" departSpeed="max">
        <route edges="l4 l2"/>
    </vehicle>
    <vehicle id="a6a181" type="car" depart="2090.50" departLane="best" departPos="random" departSpeed="max">
        <route edges="l1 l3"/>
    </vehicle>
    <vehicle id="a6a182" type="car" depart="2091.00" departLane="best" departPos="random" departSpeed="max">
        <route edges="l4 -l1"/>
    </vehicle>
    <vehicle id="a6a183" type="car" depart="2091.50" departLane="best" departPos="random" departSpeed="max">
        <route edges="-l2 -l4"/>
    </vehicle>
    <vehicle id="a6a184" type="car" depart="2092.00" departLane="best" departPos="random" departSpeed="max">
        <route edges="-l3 -l1"/>
    </vehicle>
    <vehicle id="a6a185" type="car" depart="2092.50" departLane="best" departPos="random" departSpeed="max">
        <route edges="l4 l3"/>
    </vehicle>
    <vehicle id="a6a187" type="car" depart="2093.50" departLane="best" departPos="random" departSpeed="max">
        <route edges="l4 -l1"/>
    </vehicle>
    <vehicle id="a6a188" type="motor" depart="2094.00" departLane="best" departPos="random" departSpeed="max">
        <route edges="l4 l3"/>
    </vehicle>
    <vehicle id="a6a189" type="car" depart="2094.50" departLane="best" departPos="random" departSpeed="max">
        <route edges="l1 l3"/>
    </vehicle>
    <vehicle id="a6a190" type="car" depart="2095.00" departLane="best" departPos="random" departSpeed="max">
        <route edges="-l2 -l4"/>
    </vehicle>
    <vehicle id="a6a191" type="motor" depart="2095.50" departLane="best" departPos="random" departSpeed="max">
        <route edges="-l2 l3"/>
    </vehicle>
    <vehicle id="a6a192" type="car" depart="2096.00" departLane="best" departPos="random" departSpeed="max">
        <route edges="-l3 l2"/>
    </vehicle>
    <vehicle id="a6a193" type="car" depart="2096.50" departLane="best" departPos="random" departSpeed="max">
        <route edges="-l2 l3"/>
    </vehicle>
    <vehicle id="a6a196" type="car" depart="2098.00" departLane="best" departPos="random" departSpeed="max">
        <route edges="-l3 -l1"/>
    </vehicle>
    <vehicle id="a6a197" type="motor" depart="2098.50" departLane="best" departPos="random" departSpeed="max">
        <route edges="-l2 -l4"/>
    </vehicle>
    <vehicle id="a6a198" type="car" depart="2099.00" departLane="best" departPos="random" departSpeed="max">
        <route edges="-l3 -l4"/>
    </vehicle>
    <vehicle id="a6a199" type="car" depart="2099.50" departLane="best" departPos="random" departSpeed="max">
        <route edges="-l2 -l4"/>
    </vehicle>
    <vehicle id="a6a200" type="car" depart="2100.00" departLane="best" departPos="random" departSpeed="max">
        <route edges="l1 l2"/>
    </vehicle>
    <vehicle id="a6a201" type="car" depart="2100.50" departLane="best" departPos="random" departSpeed="max">
        <route edges="-l2 l3"/>
    </vehicle>
    <vehicle id="a6a202" type="car" depart="2101.00" departLane="best" departPos="random" departSpeed="max">
        <route edges="l1 l3"/>
    </vehicle>
    <vehicle id="a6a203" type="car" depart="2101.50" departLane="best" departPos="random" departSpeed="max">
        <route edges="l1 -l4"/>
    </vehicle>
    <vehicle id="a6a205" type="car" depart="2102.50" departLane="best" departPos="random" departSpeed="max">
        <route edges="-l3 -l1"/>
    </vehicle>
    <vehicle id="a6a206" type="car" depart="2103.00" departLane="best" departPos="random" departSpeed="max">
        <route edges="-l3 -l1"/>
    </vehicle>
    <vehicle id="a6a207" type="car" depart="2103.50" departLane="best" departPos="random" departSpeed="max">
        <route edges="-l3 -l1"/>
    </vehicle>
    <vehicle id="a6a208" type="car" depart="2104.00" departLane="best" departPos="random" departSpeed="max">
        <route edges="l1 l3"/>
    </vehicle>
    <vehicle id="a6a212" type="car" depart="2106.00" departLane="best" departPos="random" departSpeed="max">
        <route edges="-l2 -l4"/>
    </vehicle>
    <vehicle id="a6a214" type="car" depart="2107.00" departLane="best" departPos="random" departSpeed="max">
        <route edges="-l3 l2"/>
    </vehicle>
    <vehicle id="a6a216" type="car" depart="2108.00" departLane="best" departPos="random" departSpeed="max">
        <route edges="l1 l2"/>
    </vehicle>
    <vehicle id="a6a217" type="motor" depart="2108.50" departLane="best" departPos="random" departSpeed="max">
        <route edges="l4 l3"/>
    </vehicle>
    <vehicle id="a6a218" type="car" depart="2109.00" departLane="best" departPos="random" departSpeed="max">
        <route edges="-l3 -l1"/>
    </vehicle>
    <vehicle id="a6a222" type="car" depart="2111.00" departLane="best" departPos="random" departSpeed="max">
        <route edges="l1 l3"/>
    </vehicle>
    <vehicle id="a6a223" type="car" depart="2111.50" departLane="best" departPos="random" departSpeed="max">
        <route edges="l4 l2"/>
    </vehicle>
    <vehicle id="a6a224" type="car" depart="2112.00" departLane="best" departPos="random" departSpeed="max">
        <route edges="l1 l3"/>
    </vehicle>
    <vehicle id="a6a225" type="motor" depart="2112.50" departLane="best" departPos="random" departSpeed="max">
        <route edges="-l2 -l1"/>
    </vehicle>
    <vehicle id="a6a228" type="motor" depart="2114.00" departLane="best" departPos="random" departSpeed="max">
        <route edges="-l3 l2"/>
    </vehicle>
    <vehicle id="a6a229" type="car" depart="2114.50" departLane="best" departPos="random" departSpeed="max">
        <route edges="-l2 -l4"/>
    </vehicle>
    <vehicle id="a6a230" type="car" depart="2115.00" departLane="best" departPos="random" departSpeed="max">
        <route edges="-l3 -l1"/>
    </vehicle>
    <vehicle id="a6a231" type="car" depart="2115.50" departLane="best" departPos="random" departSpeed="max">
        <route edges="l4 l3"/>
    </vehicle>
    <vehicle id="a6a232" type="car" depart="2116.00" departLane="best" departPos="random" departSpeed="max">
        <route edges="-l3 -l1"/>
    </vehicle>
    <vehicle id="a6a233" type="car" depart="2116.50" departLane="best" departPos="random" departSpeed="max">
        <route edges="l4 -l1"/>
    </vehicle>
    <vehicle id="a6a234" type="car" depart="2117.00" departLane="best" departPos="random" departSpeed="max">
        <route edges="l4 l2"/>
    </vehicle>
    <vehicle id="a6a235" type="car" depart="2117.50" departLane="best" departPos="random" departSpeed="max">
        <route edges="-l3 -l1"/>
    </vehicle>
    <vehicle id="a6a236" type="emergency" depart="2118.00" departLane="best" departPos="random" departSpeed="max">
        <route edges="l1 l2"/>
    </vehicle>
    <vehicle id="a6a237" type="car" depart="2118.50" departLane="best" departPos="random" departSpeed="max">
        <route edges="-l2 l3"/>
    </vehicle>
    <vehicle id="a6a238" type="motor" depart="2119.00" departLane="best" departPos="random" departSpeed="max">
        <route edges="l4 l3"/>
    </vehicle>
    <vehicle id="a6a240" type="car" depart="2120.00" departLane="best" departPos="random" departSpeed="max">
        <route edges="-l3 l2"/>
    </vehicle>
    <vehicle id="a6a241" type="car" depart="2120.50" departLane="best" departPos="random" departSpeed="max">
        <route edges="l1 l2"/>
    </vehicle>