<?xml version="1.0" encoding="UTF-8"?>

<!-- generated on 2021-05-11 12:54:46 by Eclipse SUMO duarouter Version 1.9.1
<configuration xmlns:xsi="http://www.w3.org/2001/XMLSchema-instance" xsi:noNamespaceSchemaLocation="http://sumo.dlr.de/xsd/duarouterConfiguration.xsd">

    <input>
        <net-file value="./sumo_files/single_intersection/single_intersection.net.xml"/>
        <additional-files value="./sumo_files/single_intersection/single_intersection.add.xml"/>
        <route-files value="./sumo_files/single_intersection/trips.trips.xml"/>
    </input>

    <output>
        <output-file value="./sumo_files/single_intersection/single_intersection3.rou.xml"/>
        <vtype-output value="vtypeout.xml"/>
        <alternatives-output value="./sumo_files/single_intersection/single_intersection3.rou.alt.xml"/>
    </output>

    <time>
        <begin value="800.0"/>
        <end value="1200.0"/>
    </time>

    <report>
        <no-warnings value="true"/>
        <ignore-errors value="true"/>
        <no-step-log value="true"/>
    </report>

</configuration>
-->

<routes xmlns:xsi="http://www.w3.org/2001/XMLSchema-instance" xsi:noNamespaceSchemaLocation="http://sumo.dlr.de/xsd/routes_file.xsd">
    <vehicle id="a3a0" type="motor" depart="800.00" departLane="best" departPos="random" departSpeed="max">
        <route edges="-l3 -l4"/>
    </vehicle>
    <vehicle id="a3a1" type="car" depart="800.50" departLane="best" departPos="random" departSpeed="max">
        <route edges="-l3 -l1"/>
    </vehicle>
    <vehicle id="a3a2" type="car" depart="801.00" departLane="best" departPos="random" departSpeed="max">
        <route edges="l4 l2"/>
    </vehicle>
    <vehicle id="a3a3" type="car" depart="801.50" departLane="best" departPos="random" departSpeed="max">
        <route edges="-l2 -l4"/>
    </vehicle>
    <vehicle id="a3a5" type="car" depart="802.50" departLane="best" departPos="random" departSpeed="max">
        <route edges="l1 -l4"/>
    </vehicle>
    <vehicle id="a3a6" type="car" depart="803.00" departLane="best" departPos="random" departSpeed="max">
        <route edges="-l2 -l1"/>
    </vehicle>
    <vehicle id="a3a7" type="car" depart="803.50" departLane="best" departPos="random" departSpeed="max">
        <route edges="l1 l2"/>
    </vehicle>
    <vehicle id="a3a8" type="car" depart="804.00" departLane="best" departPos="random" departSpeed="max">
        <route edges="-l2 -l4"/>
    </vehicle>
    <vehicle id="a3a9" type="car" depart="804.50" departLane="best" departPos="random" departSpeed="max">
        <route edges="-l3 -l4"/>
    </vehicle>
    <vehicle id="a3a10" type="car" depart="805.00" departLane="best" departPos="random" departSpeed="max">
        <route edges="l4 -l1"/>
    </vehicle>
    <vehicle id="a3a11" type="car" depart="805.50" departLane="best" departPos="random" departSpeed="max">
        <route edges="l4 -l1"/>
    </vehicle>
    <vehicle id="a3a12" type="car" depart="806.00" departLane="best" departPos="random" departSpeed="max">
        <route edges="l4 -l1"/>
    </vehicle>
    <vehicle id="a3a14" type="car" depart="807.00" departLane="best" departPos="random" departSpeed="max">
        <route edges="-l2 -l1"/>
    </vehicle>
    <vehicle id="a3a15" type="car" depart="807.50" departLane="best" departPos="random" departSpeed="max">
        <route edges="-l2 l3"/>
    </vehicle>
    <vehicle id="a3a17" type="motor" depart="808.50" departLane="best" departPos="random" departSpeed="max">
        <route edges="-l2 l3"/>
    </vehicle>
    <vehicle id="a3a18" type="car" depart="809.00" departLane="best" departPos="random" departSpeed="max">
        <route edges="l1 l2"/>
    </vehicle>
    <vehicle id="a3a19" type="car" depart="809.50" departLane="best" departPos="random" departSpeed="max">
        <route edges="-l3 l2"/>
    </vehicle>
    <vehicle id="a3a20" type="car" depart="810.00" departLane="best" departPos="random" departSpeed="max">
        <route edges="l1 l3"/>
    </vehicle>
    <vehicle id="a3a22" type="car" depart="811.00" departLane="best" departPos="random" departSpeed="max">
        <route edges="l1 l2"/>
    </vehicle>
    <vehicle id="a3a23" type="car" depart="811.50" departLane="best" departPos="random" departSpeed="max">
        <route edges="-l3 -l4"/>
    </vehicle>
    <vehicle id="a3a24" type="motor" depart="812.00" departLane="best" departPos="random" departSpeed="max">
        <route edges="l1 -l4"/>
    </vehicle>
    <vehicle id="a3a25" type="emergency" depart="812.50" departLane="best" departPos="random" departSpeed="max">
        <route edges="l1 -l4"/>
    </vehicle>
    <vehicle id="a3a26" type="motor" depart="813.00" departLane="best" departPos="random" departSpeed="max">
        <route edges="l1 -l4"/>
    </vehicle>
    <vehicle id="a3a27" type="car" depart="813.50" departLane="best" departPos="random" departSpeed="max">
        <route edges="-l2 -l1"/>
    </vehicle>
    <vehicle id="a3a30" type="car" depart="815.00" departLane="best" departPos="random" departSpeed="max">
        <route edges="l4 -l1"/>
    </vehicle>
    <vehicle id="a3a31" type="car" depart="815.50" departLane="best" departPos="random" departSpeed="max">
        <route edges="-l3 l2"/>
    </vehicle>
    <vehicle id="a3a32" type="car" depart="816.00" departLane="best" departPos="random" departSpeed="max">
        <route edges="-l3 -l4"/>
    </vehicle>
    <vehicle id="a3a33" type="car" depart="816.50" departLane="best" departPos="random" departSpeed="max">
        <route edges="l1 -l4"/>
    </vehicle>
    <vehicle id="a3a34" type="motor" depart="817.00" departLane="best" departPos="random" departSpeed="max">
        <route edges="-l2 -l4"/>
    </vehicle>
    <vehicle id="a3a35" type="car" depart="817.50" departLane="best" departPos="random" departSpeed="max">
        <route edges="-l2 -l4"/>
    </vehicle>
    <vehicle id="a3a36" type="car" depart="818.00" departLane="best" departPos="random" departSpeed="max">
        <route edges="l4 -l1"/>
    </vehicle>
    <vehicle id="a3a38" type="car" depart="819.00" departLane="best" departPos="random" departSpeed="max">
        <route edges="l4 l2"/>
    </vehicle>
    <vehicle id="a3a40" type="car" depart="820.00" departLane="best" departPos="random" departSpeed="max">
        <route edges="-l3 -l1"/>
    </vehicle>
    <vehicle id="a3a41" type="motor" depart="820.50" departLane="best" departPos="random" departSpeed="max">
        <route edges="l1 -l4"/>
    </vehicle>
    <vehicle id="a3a42" type="car" depart="821.00" departLane="best" departPos="random" departSpeed="max">
        <route edges="-l2 -l1"/>
    </vehicle>
    <vehicle id="a3a43" type="car" depart="821.50" departLane="best" departPos="random" departSpeed="max">
        <route edges="-l2 -l1"/>
    </vehicle>
    <vehicle id="a3a44" type="car" depart="822.00" departLane="best" departPos="random" departSpeed="max">
        <route edges="-l2 -l4"/>
    </vehicle>
    <vehicle id="a3a45" type="car" depart="822.50" departLane="best" departPos="random" departSpeed="max">
        <route edges="l4 l2"/>
    </vehicle>
    <vehicle id="a3a46" type="car" depart="823.00" departLane="best" departPos="random" departSpeed="max">
        <route edges="l1 l3"/>
    </vehicle>
    <vehicle id="a3a47" type="emergency" depart="823.50" departLane="best" departPos="random" departSpeed="max">
        <route edges="-l3 l2"/>
    </vehicle>
    <vehicle id="a3a48" type="car" depart="824.00" departLane="best" departPos="random" departSpeed="max">
        <route edges="l4 l3"/>
    </vehicle>
    <vehicle id="a3a50" type="car" depart="825.00" departLane="best" departPos="random" departSpeed="max">
        <route edges="-l2 -l4"/>
    </vehicle>
    <vehicle id="a3a52" type="car" depart="826.00" departLane="best" departPos="random" departSpeed="max">
        <route edges="l4 l2"/>
    </vehicle>
    <vehicle id="a3a54" type="motor" depart="827.00" departLane="best" departPos="random" departSpeed="max">
        <route edges="l4 l2"/>
    </vehicle>
    <vehicle id="a3a56" type="car" depart="828.00" departLane="best" departPos="random" departSpeed="max">
        <route edges="-l2 l3"/>
    </vehicle>
    <vehicle id="a3a57" type="car" depart="828.50" departLane="best" departPos="random" departSpeed="max">
        <route edges="-l2 l3"/>
    </vehicle>
    <vehicle id="a3a58" type="car" depart="829.00" departLane="best" departPos="random" departSpeed="max">
        <route edges="l1 l3"/>
    </vehicle>
    <vehicle id="a3a62" type="car" depart="831.00" departLane="best" departPos="random" departSpeed="max">
        <route edges="-l3 -l4"/>
    </vehicle>
    <vehicle id="a3a63" type="car" depart="831.50" departLane="best" departPos="random" departSpeed="max">
        <route edges="-l2 -l4"/>
    </vehicle>
    <vehicle id="a3a64" type="car" depart="832.00" departLane="best" departPos="random" departSpeed="max">
        <route edges="l1 l3"/>
    </vehicle>
    <vehicle id="a3a66" type="motor" depart="833.00" departLane="best" departPos="random" departSpeed="max">
        <route edges="l4 l2"/>
    </vehicle>
    <vehicle id="a3a67" type="car" depart="833.50" departLane="best" departPos="random" departSpeed="max">
        <route edges="-l2 l3"/>
    </vehicle>
    <vehicle id="a3a69" type="motor" depart="834.50" departLane="best" departPos="random" departSpeed="max">
        <route edges="l1 l3"/>
    </vehicle>
    <vehicle id="a3a70" type="car" depart="835.00" departLane="best" departPos="random" departSpeed="max">
        <route edges="l1 l3"/>
    </vehicle>
    <vehicle id="a3a71" type="car" depart="835.50" departLane="best" departPos="random" departSpeed="max">
        <route edges="-l2 -l1"/>
    </vehicle>
    <vehicle id="a3a72" type="car" depart="836.00" departLane="best" departPos="random" departSpeed="max">
        <route edges="l4 l3"/>
    </vehicle>
    <vehicle id="a3a73" type="car" depart="836.50" departLane="best" departPos="random" departSpeed="max">
        <route edges="l4 -l1"/>
    </vehicle>
    <vehicle id="a3a75" type="car" depart="837.50" departLane="best" departPos="random" departSpeed="max">
        <route edges="l4 l3"/>
    </vehicle>
    <vehicle id="a3a76" type="car" depart="838.00" departLane="best" departPos="random" departSpeed="max">
        <route edges="-l2 -l4"/>
    </vehicle>
    <vehicle id="a3a77" type="car" depart="838.50" departLane="best" departPos="random" departSpeed="max">
        <route edges="l4 l2"/>
    </vehicle>
    <vehicle id="a3a78" type="car" depart="839.00" departLane="best" departPos="random" departSpeed="max">
        <route edges="l4 l2"/>
    </vehicle>
    <vehicle id="a3a79" type="car" depart="839.50" departLane="best" departPos="random" departSpeed="max">
        <route edges="-l2 l3"/>
    </vehicle>
    <vehicle id="a3a81" type="car" depart="840.50" departLane="best" departPos="random" departSpeed="max">
        <route edges="l4 -l1"/>
    </vehicle>
    <vehicle id="a3a82" type="car" depart="841.00" departLane="best" departPos="random" departSpeed="max">
        <route edges="l1 -l4"/>
    </vehicle>
    <vehicle id="a3a83" type="car" depart="841.50" departLane="best" departPos="random" departSpeed="max">
        <route edges="l1 -l4"/>
    </vehicle>
    <vehicle id="a3a84" type="car" depart="842.00" departLane="best" departPos="random" departSpeed="max">
        <route edges="-l2 -l4"/>
    </vehicle>
    <vehicle id="a3a85" type="car" depart="842.50" departLane="best" departPos="random" departSpeed="max">
        <route edges="l4 l2"/>
    </vehicle>
    <vehicle id="a3a86" type="car" depart="843.00" departLane="best" departPos="random" departSpeed="max">
        <route edges="-l2 -l1"/>
    </vehicle>
    <vehicle id="a3a87" type="emergency" depart="843.50" departLane="best" departPos="random" departSpeed="max">
        <route edges="l1 -l4"/>
    </vehicle>
    <vehicle id="a3a89" type="car" depart="844.50" departLane="best" departPos="random" departSpeed="max">
        <route edges="-l3 l2"/>
    </vehicle>
    <vehicle id="a3a91" type="motor" depart="845.50" departLane="best" departPos="random" departSpeed="max">
        <route edges="-l2 -l4"/>
    </vehicle>
    <vehicle id="a3a92" type="car" depart="846.00" departLane="best" departPos="random" departSpeed="max">
        <route edges="l1 l2"/>
    </vehicle>
    <vehicle id="a3a93" type="car" depart="846.50" departLane="best" departPos="random" departSpeed="max">
        <route edges="l4 -l1"/>
    </vehicle>
    <vehicle id="a3a94" type="car" depart="847.00" departLane="best" departPos="random" departSpeed="max">
        <route edges="-l3 -l1"/>
    </vehicle>
    <vehicle id="a3a95" type="motor" depart="847.50" departLane="best" departPos="random" departSpeed="max">
        <route edges="-l2 l3"/>
    </vehicle>
    <vehicle id="a3a96" type="car" depart="848.00" departLane="best" departPos="random" departSpeed="max">
        <route edges="l4 l2"/>
    </vehicle>
    <vehicle id="a3a97" type="motor" depart="848.50" departLane="best" departPos="random" departSpeed="max">
        <route edges="-l2 -l1"/>
    </vehicle>
    <vehicle id="a3a98" type="car" depart="849.00" departLane="best" departPos="random" departSpeed="max">
        <route edges="l4 l3"/>
    </vehicle>
    <vehicle id="a3a99" type="car" depart="849.50" departLane="best" departPos="random" departSpeed="max">
        <route edges="l1 l2"/>
    </vehicle>
    <vehicle id="a3a100" type="car" depart="850.00" departLane="best" departPos="random" departSpeed="max">
        <route edges="-l2 -l4"/>
    </vehicle>
    <vehicle id="a3a101" type="car" depart="850.50" departLane="best" departPos="random" departSpeed="max">
        <route edges="-l2 -l4"/>
    </vehicle>
    <vehicle id="a3a102" type="motor" depart="851.00" departLane="best" departPos="random" departSpeed="max">
        <route edges="-l3 -l1"/>
    </vehicle>
    <vehicle id="a3a103" type="car" depart="851.50" departLane="best" departPos="random" departSpeed="max">
        <route edges="-l2 -l4"/>
    </vehicle>
    <vehicle id="a3a104" type="motor" depart="852.00" departLane="best" departPos="random" departSpeed="max">
        <route edges="-l2 -l4"/>
    </vehicle>
    <vehicle id="a3a106" type="car" depart="853.00" departLane="best" departPos="random" departSpeed="max">
        <route edges="-l2 -l1"/>
    </vehicle>
    <vehicle id="a3a107" type="car" depart="853.50" departLane="best" departPos="random" departSpeed="max">
        <route edges="-l2 l3"/>
    </vehicle>
    <vehicle id="a3a111" type="car" depart="855.50" departLane="best" departPos="random" departSpeed="max">
        <route edges="-l3 l2"/>
    </vehicle>
    <vehicle id="a3a112" type="car" depart="856.00" departLane="best" departPos="random" departSpeed="max">
        <route edges="-l2 -l1"/>
    </vehicle>
    <vehicle id="a3a113" type="car" depart="856.50" departLane="best" departPos="random" departSpeed="max">
        <route edges="l1 -l4"/>
    </vehicle>
    <vehicle id="a3a114" type="car" depart="857.00" departLane="best" departPos="random" departSpeed="max">
        <route edges="l1 l3"/>
    </vehicle>
    <vehicle id="a3a116" type="car" depart="858.00" departLane="best" departPos="random" departSpeed="max">
        <route edges="l4 l2"/>
    </vehicle>
    <vehicle id="a3a117" type="car" depart="858.50" departLane="best" departPos="random" departSpeed="max">
        <route edges="-l3 l2"/>
    </vehicle>
    <vehicle id="a3a120" type="car" depart="860.00" departLane="best" departPos="random" departSpeed="max">
        <route edges="-l3 -l4"/>
    </vehicle>
    <vehicle id="a3a121" type="car" depart="860.50" departLane="best" departPos="random" departSpeed="max">
        <route edges="l1 l2"/>
    </vehicle>
    <vehicle id="a3a122" type="car" depart="861.00" departLane="best" departPos="random" departSpeed="max">
        <route edges="-l3 -l4"/>
    </vehicle>
    <vehicle id="a3a123" type="car" depart="861.50" departLane="best" departPos="random" departSpeed="max">
        <route edges="l1 l3"/>
    </vehicle>
    <vehicle id="a3a124" type="motor" depart="862.00" departLane="best" departPos="random" departSpeed="max">
        <route edges="l1 l2"/>
    </vehicle>
    <vehicle id="a3a125" type="emergency" depart="862.50" departLane="best" departPos="random" departSpeed="max">
        <route edges="-l2 l3"/>
    </vehicle>
    <vehicle id="a3a126" type="car" depart="863.00" departLane="best" departPos="random" departSpeed="max">
        <route edges="-l2 l3"/>
    </vehicle>
    <vehicle id="a3a127" type="motor" depart="863.50" departLane="best" departPos="random" departSpeed="max">
        <route edges="l1 l2"/>
    </vehicle>
    <vehicle id="a3a130" type="car" depart="865.00" departLane="best" departPos="random" departSpeed="max">
        <route edges="-l2 -l4"/>
    </vehicle>
    <vehicle id="a3a132" type="car" depart="866.00" departLane="best" departPos="random" departSpeed="max">
        <route edges="l1 l3"/>
    </vehicle>
    <vehicle id="a3a133" type="car" depart="866.50" departLane="best" departPos="random" departSpeed="max">
        <route edges="l1 -l4"/>
    </vehicle>
    <vehicle id="a3a134" type="car" depart="867.00" departLane="best" departPos="random" departSpeed="max">
        <route edges="l4 l3"/>
    </vehicle>
    <vehicle id="a3a135" type="car" depart="867.50" departLane="best" departPos="random" departSpeed="max">
        <route edges="l1 l3"/>
    </vehicle>
    <vehicle id="a3a136" type="car" depart="868.00" departLane="best" departPos="random" departSpeed="max">
        <route edges="-l2 l3"/>
    </vehicle>
    <vehicle id="a3a137" type="car" depart="868.50" departLane="best" departPos="random" departSpeed="max">
        <route edges="-l2 -l1"/>
    </vehicle>
    <vehicle id="a3a139" type="car" depart="869.50" departLane="best" departPos="random" departSpeed="max">
        <route edges="-l3 l2"/>
    </vehicle>
    <vehicle id="a3a141" type="motor" depart="870.50" departLane="best" departPos="random" departSpeed="max">
        <route edges="l1 l3"/>
    </vehicle>
    <vehicle id="a3a142" type="car" depart="871.00" departLane="best" departPos="random" departSpeed="max">
        <route edges="-l3 -l1"/>
    </vehicle>
    <vehicle id="a3a143" type="car" depart="871.50" departLane="best" departPos="random" departSpeed="max">
        <route edges="l1 l3"/>
    </vehicle>
    <vehicle id="a3a144" type="motor" depart="872.00" departLane="best" departPos="random" departSpeed="max">
        <route edges="-l3 l2"/>
    </vehicle>
    <vehicle id="a3a145" type="motor" depart="872.50" departLane="best" departPos="random" departSpeed="max">
        <route edges="l1 l2"/>
    </vehicle>
    <vehicle id="a3a146" type="car" depart="873.00" departLane="best" departPos="random" departSpeed="max">
        <route edges="-l3 -l1"/>
    </vehicle>
    <vehicle id="a3a148" type="car" depart="874.00" departLane="best" departPos="random" departSpeed="max">
        <route edges="l1 l3"/>
    </vehicle>
    <vehicle id="a3a150" type="car" depart="875.00" departLane="best" departPos="random" departSpeed="max">
        <route edges="-l2 l3"/>
    </vehicle>
    <vehicle id="a3a151" type="car" depart="875.50" departLane="best" departPos="random" departSpeed="max">
        <route edges="-l2 l3"/>
    </vehicle>
    <vehicle id="a3a153" type="car" depart="876.50" departLane="best" departPos="random" departSpeed="max">
        <route edges="l4 l2"/>
    </vehicle>
    <vehicle id="a3a154" type="car" depart="877.00" departLane="best" departPos="random" departSpeed="max">
        <route edges="-l3 -l4"/>
    </vehicle>
    <vehicle id="a3a155" type="motor" depart="877.50" departLane="best" departPos="random" departSpeed="max">
        <route edges="-l3 -l4"/>
    </vehicle>
    <vehicle id="a3a156" type="car" depart="878.00" departLane="best" departPos="random" departSpeed="max">
        <route edges="-l2 l3"/>
    </vehicle>
    <vehicle id="a3a157" type="car" depart="878.50" departLane="best" departPos="random" departSpeed="max">
        <route edges="-l3 -l4"/>
    </vehicle>
    <vehicle id="a3a158" type="motor" depart="879.00" departLane="best" departPos="random" departSpeed="max">
        <route edges="-l2 -l1"/>
    </vehicle>
    <vehicle id="a3a159" type="car" depart="879.50" departLane="best" departPos="random" departSpeed="max">
        <route edges="l1 -l4"/>
    </vehicle>
    <vehicle id="a3a160" type="car" depart="880.00" departLane="best" departPos="random" departSpeed="max">
        <route edges="-l2 -l1"/>
    </vehicle>
    <vehicle id="a3a161" type="motor" depart="880.50" departLane="best" departPos="random" departSpeed="max">
        <route edges="l1 l3"/>
    </vehicle>
    <vehicle id="a3a162" type="emergency" depart="881.00" departLane="best" departPos="random" departSpeed="max">
        <route edges="-l2 l3"/>
    </vehicle>
    <vehicle id="a3a163" type="car" depart="881.50" departLane="best" departPos="random" departSpeed="max">
        <route edges="l1 l3"/>
    </vehicle>
    <vehicle id="a3a164" type="motor" depart="882.00" departLane="best" departPos="random" departSpeed="max">
        <route edges="l1 -l4"/>
    </vehicle>
    <vehicle id="a3a165" type="car" depart="882.50" departLane="best" departPos="random" departSpeed="max">
        <route edges="-l3 -l1"/>
    </vehicle>
    <vehicle id="a3a166" type="motor" depart="883.00" departLane="best" departPos="random" departSpeed="max">
        <route edges="-l2 l3"/>
    </vehicle>
    <vehicle id="a3a167" type="car" depart="883.50" departLane="best" departPos="random" departSpeed="max">
        <route edges="-l2 l3"/>
    </vehicle>
    <vehicle id="a3a169" type="emergency" depart="884.50" departLane="best" departPos="random" departSpeed="max">
        <route edges="l1 -l4"/>
    </vehicle>
    <vehicle id="a3a170" type="car" depart="885.00" departLane="best" departPos="random" departSpeed="max">
        <route edges="-l3 -l4"/>
    </vehicle>
    <vehicle id="a3a171" type="car" depart="885.50" departLane="best" departPos="random" departSpeed="max">
        <route edges="l4 -l1"/>
    </vehicle>
    <vehicle id="a3a173" type="car" depart="886.50" departLane="best" departPos="random" departSpeed="max">
        <route edges="l1 l2"/>
    </vehicle>
    <vehicle id="a3a174" type="car" depart="887.00" departLane="best" departPos="random" departSpeed="max">
        <route edges="-l2 -l1"/>
    </vehicle>
    <vehicle id="a3a175" type="car" depart="887.50" departLane="best" departPos="random" departSpeed="max">
        <route edges="l1 l2"/>
    </vehicle>
    <vehicle id="a3a176" type="car" depart="888.00" departLane="best" departPos="random" departSpeed="max">
        <route edges="l1 -l4"/>
    </vehicle>
    <vehicle id="a3a179" type="car" depart="889.50" departLane="best" departPos="random" departSpeed="max">
        <route edges="-l2 -l4"/>
    </vehicle>
    <vehicle id="a3a180" type="car" depart="890.00" departLane="best" departPos="random" departSpeed="max">
        <route edges="l4 l3"/>
    </vehicle>
    <vehicle id="a3a181" type="car" depart="890.50" departLane="best" departPos="random" departSpeed="max">
        <route edges="-l2 -l1"/>
    </vehicle>
    <vehicle id="a3a182" type="car" depart="891.00" departLane="best" departPos="random" departSpeed="max">
        <route edges="l1 l2"/>
    </vehicle>
    <vehicle id="a3a183" type="car" depart="891.50" departLane="best" departPos="random" departSpeed="max">
        <route edges="-l2 -l1"/>
    </vehicle>
    <vehicle id="a3a185" type="car" depart="892.50" departLane="best" departPos="random" departSpeed="max">
        <route edges="-l3 -l4"/>
    </vehicle>
    <vehicle id="a3a187" type="car" depart="893.50" departLane="best" departPos="random" departSpeed="max">
        <route edges="-l3 -l1"/>
    </vehicle>
    <vehicle id="a3a188" type="motor" depart="894.00" departLane="best" departPos="random" departSpeed="max">
        <route edges="l4 -l1"/>
    </vehicle>
    <vehicle id="a3a189" type="car" depart="894.50" departLane="best" departPos="random" departSpeed="max">
        <route edges="-l3 l2"/>
    </vehicle>
    <vehicle id="a3a191" type="motor" depart="895.50" departLane="best" departPos="random" departSpeed="max">
        <route edges="-l2 -l1"/>
    </vehicle>
    <vehicle id="a3a192" type="car" depart="896.00" departLane="best" departPos="random" departSpeed="max">
        <route edges="l4 l3"/>
    </vehicle>
    <vehicle id="a3a193" type="car" depart="896.50" departLane="best" departPos="random" departSpeed="max">
        <route edges="l4 l2"/>
    </vehicle>
    <vehicle id="a3a194" type="car" depart="897.00" departLane="best" departPos="random" departSpeed="max">
        <route edges="l4 l2"/>
    </vehicle>
    <vehicle id="a3a195" type="motor" depart="897.50" departLane="best" departPos="random" departSpeed="max">
        <route edges="-l2 -l1"/>
    </vehicle>
    <vehicle id="a3a196" type="car" depart="898.00" departLane="best" departPos="random" departSpeed="max">
        <route edges="-l3 -l1"/>
    </vehicle>
    <vehicle id="a3a197" type="motor" depart="898.50" departLane="best" departPos="random" departSpeed="max">
        <route edges="-l2 l3"/>
    </vehicle>
    <vehicle id="a3a198" type="car" depart="899.00" departLane="best" departPos="random" departSpeed="max">
        <route edges="-l2 -l4"/>
    </vehicle>
    <vehicle id="a3a199" type="car" depart="899.50" departLane="best" departPos="random" departSpeed="max">
        <route edges="-l3 -l4"/>
    </vehicle>
    <vehicle id="a3a200" type="car" depart="900.00" departLane="best" departPos="random" departSpeed="max">
        <route edges="-l3 l2"/>
    </vehicle>
    <vehicle id="a3a201" type="car" depart="900.50" departLane="best" departPos="random" departSpeed="max">
        <route edges="l4 l3"/>
    </vehicle>
    <vehicle id="a3a202" type="car" depart="901.00" departLane="best" departPos="random" departSpeed="max">
        <route edges="l1 l2"/>
    </vehicle>
    <vehicle id="a3a203" type="car" depart="901.50" departLane="best" departPos="random" departSpeed="max">
        <route edges="-l2 -l1"/>
    </vehicle>
    <vehicle id="a3a205" type="car" depart="902.50" departLane="best" departPos="random" departSpeed="max">
        <route edges="-l2 -l1"/>
    </vehicle>
    <vehicle id="a3a206" type="car" depart="903.00" departLane="best" departPos="random" departSpeed="max">
        <route edges="l1 l2"/>
    </vehicle>
    <vehicle id="a3a207" type="car" depart="903.50" departLane="best" departPos="random" departSpeed="max">
        <route edges="-l3 -l4"/>
    </vehicle>
    <vehicle id="a3a208" type="car" depart="904.00" departLane="best" departPos="random" departSpeed="max">
        <route edges="l1 l2"/>
    </vehicle>
    <vehicle id="a3a210" type="car" depart="905.00" departLane="best" departPos="random" departSpeed="max">
        <route edges="-l3 -l4"/>
    </vehicle>
    <vehicle id="a3a211" type="car" depart="905.50" departLane="best" departPos="random" departSpeed="max">
        <route edges="l4 l3"/>
    </vehicle>
    <vehicle id="a3a215" type="car" depart="907.50" departLane="best" departPos="random" departSpeed="max">
        <route edges="l1 l3"/>
    </vehicle>
    <vehicle id="a3a216" type="car" depart="908.00" departLane="best" departPos="random" departSpeed="max">
        <route edges="-l3 l2"/>
    </vehicle>
    <vehicle id="a3a217" type="motor" depart="908.50" departLane="best" departPos="random" departSpeed="max">
        <route edges="l1 -l4"/>
    </vehicle>
    <vehicle id="a3a218" type="car" depart="909.00" departLane="best" departPos="random" departSpeed="max">
        <route edges="-l2 l3"/>
    </vehicle>
    <vehicle id="a3a219" type="car" depart="909.50" departLane="best" departPos="random" departSpeed="max">
        <route edges="-l2 -l1"/>
    </vehicle>
    <vehicle id="a3a220" type="car" depart="910.00" departLane="best" departPos="random" departSpeed="max">
        <route edges="-l3 -l4"/>
    </vehicle>
    <vehicle id="a3a221" type="car" depart="910.50" departLane="best" departPos="random" departSpeed="max">
        <route edges="l1 l3"/>
    </vehicle>
    <vehicle id="a3a222" type="car" depart="911.00" departLane="best" departPos="random" departSpeed="max">
        <route edges="l4 -l1"/>
    </vehicle>
    <vehicle id="a3a223" type="car" depart="911.50" departLane="best" departPos="random" departSpeed="max">
        <route edges="l4 l3"/>
    </vehicle>
    <vehicle id="a3a224" type="car" depart="912.00" departLane="best" departPos="random" departSpeed="max">
        <route edges="l1 l2"/>
    </vehicle>
    <vehicle id="a3a225" type="motor" depart="912.50" departLane="best" departPos="random" departSpeed="max">
        <route edges="l4 l2"/>
    </vehicle>
    <vehicle id="a3a226" type="motor" depart="913.00" departLane="best" departPos="random" departSpeed="max">
        <route edges="l1 l3"/>
    </vehicle>
    <vehicle id="a3a227" type="car" depart="913.50" departLane="best" departPos="random" departSpeed="max">
        <route edges="l4 l2"/>
    </vehicle>
    <vehicle id="a3a228" type="motor" depart="914.00" departLane="best" departPos="random" departSpeed="max">
        <route edges="-l3 l2"/>
    </vehicle>
    <vehicle id="a3a230" type="car" depart="915.00" departLane="best" departPos="random" departSpeed="max">
        <route edges="l4 l2"/>
    </vehicle>
    <vehicle id="a3a231" type="car" depart="915.50" departLane="best" departPos="random" departSpeed="max">
        <route edges="l4 l2"/>
    </vehicle>
    <vehicle id="a3a233" type="car" depart="916.50" departLane="best" departPos="random" departSpeed="max">
        <route edges="l1 l2"/>
    </vehicle>
    <vehicle id="a3a234" type="car" depart="917.00" departLane="best" departPos="random" departSpeed="max">
        <route edges="l1 -l4"/>
    </vehicle>