<?xml version="1.0" encoding="UTF-8"?>

<!-- generated on 04/26/21 14:51:32 by Eclipse SUMO netedit Version 1.7.0
<configuration xmlns:xsi="http://www.w3.org/2001/XMLSchema-instance" xsi:noNamespaceSchemaLocation="http://sumo.dlr.de/xsd/netconvertConfiguration.xsd">

    <input>
        <sumo-net-file value="D:\Monash\Year%204%20Sem%202%20(Mar%202021)\ECE4095%20-%20Project%20B\RL_single\sumo_files\single_intersection\single_intersection.net.xml"/>
    </input>

    <output>
        <output-file value="D:\Monash\Year%204%20Sem%202%20(Mar%202021)\ECE4095%20-%20Project%20B\RL_single\sumo_files\single_intersection\single_intersection.net.xml"/>
    </output>

    <processing>
        <geometry.min-radius.fix.railways value="false"/>
        <geometry.max-grade.fix value="false"/>
        <offset.disable-normalization value="true"/>
        <lefthand value="false"/>
    </processing>

    <junctions>
        <no-turnarounds value="true"/>
        <junctions.corner-detail value="5"/>
        <junctions.limit-turn-speed value="5.5"/>
        <rectangular-lane-cut value="false"/>
    </junctions>

    <pedestrian>
        <walkingareas value="false"/>
    </pedestrian>

    <report>
        <aggregate-warnings value="5"/>
    </report>

</configuration>
-->

<net version="1.6" junctionCornerDetail="5" limitTurnSpeed="5.50" xmlns:xsi="http://www.w3.org/2001/XMLSchema-instance" xsi:noNamespaceSchemaLocation="http://sumo.dlr.de/xsd/net_file.xsd">

    <location netOffset="0.00,0.00" convBoundary="-150.00,-150.00,150.00,150.00" origBoundary="-10000000000.00,-10000000000.00,10000000000.00,10000000000.00" projParameter="!"/>

    <edge id=":j0_0" function="internal">
        <lane id=":j0_0_0" index="0" speed="6.51" length="9.03" shape="-8.00,13.60 -8.35,11.15 -9.40,9.40 -11.15,8.35 -13.60,8.00"/>
    </edge>
    <edge id=":j0_1" function="internal">
        <lane id=":j0_1_0" index="0" speed="16.67" length="27.20" shape="-8.00,13.60 -8.00,-13.60"/>
        <lane id=":j0_1_1" index="1" speed="16.67" length="27.20" shape="-4.80,13.60 -4.80,-13.60"/>
        <lane id=":j0_1_2" index="2" speed="16.67" length="27.20" shape="-1.60,13.60 -1.60,-13.60"/>
    </edge>
    <edge id=":j0_4" function="internal">
        <lane id=":j0_4_0" index="0" speed="10.36" length="24.51" shape="-1.60,13.60 -0.65,6.95 2.20,2.20 6.95,-0.65 13.60,-1.60"/>
    </edge>
    <edge id=":j0_5" function="internal">
        <lane id=":j0_5_0" index="0" speed="6.51" length="9.03" shape="13.60,8.00 11.15,8.35 9.40,9.40 8.35,11.15 8.00,13.60"/>
    </edge>
    <edge id=":j0_6" function="internal">
        <lane id=":j0_6_0" index="0" speed="16.67" length="27.20" shape="13.60,8.00 -13.60,8.00"/>
        <lane id=":j0_6_1" index="1" speed="16.67" length="27.20" shape="13.60,4.80 -13.60,4.80"/>
        <lane id=":j0_6_2" index="2" speed="16.67" length="27.20" shape="13.60,1.60 -13.60,1.60"/>
    </edge>
    <edge id=":j0_9" function="internal">
        <lane id=":j0_9_0" index="0" speed="10.36" length="24.51" shape="13.60,1.60 6.95,0.65 2.20,-2.20 -0.65,-6.95 -1.60,-13.60"/>
    </edge>
    <edge id=":j0_10" function="internal">
        <lane id=":j0_10_0" index="0" speed="6.51" length="9.03" shape="8.00,-13.60 8.35,-11.15 9.40,-9.40 11.15,-8.35 13.60,-8.00"/>
    </edge>
    <edge id=":j0_11" function="internal">
        <lane id=":j0_11_0" index="0" speed="16.67" length="27.20" shape="8.00,-13.60 8.00,13.60"/>
        <lane id=":j0_11_1" index="1" speed="16.67" length="27.20" shape="4.80,-13.60 4.80,13.60"/>
        <lane id=":j0_11_2" index="2" speed="16.67" length="27.20" shape="1.60,-13.60 1.60,13.60"/>
    </edge>
    <edge id=":j0_14" function="internal">
        <lane id=":j0_14_0" index="0" speed="10.36" length="24.51" shape="1.60,-13.60 0.65,-6.95 -2.20,-2.20 -6.95,0.65 -13.60,1.60"/>
    </edge>
    <edge id=":j0_15" function="internal">
        <lane id=":j0_15_0" index="0" speed="6.51" length="9.03" shape="-13.60,-8.00 -11.15,-8.35 -9.40,-9.40 -8.35,-11.15 -8.00,-13.60"/>
    </edge>
    <edge id=":j0_16" function="internal">
        <lane id=":j0_16_0" index="0" speed="16.67" length="27.20" shape="-13.60,-8.00 13.60,-8.00"/>
        <lane id=":j0_16_1" index="1" speed="16.67" length="27.20" shape="-13.60,-4.80 13.60,-4.80"/>
        <lane id=":j0_16_2" index="2" speed="16.67" length="27.20" shape="-13.60,-1.60 13.60,-1.60"/>
    </edge>
    <edge id=":j0_19" function="internal">
        <lane id=":j0_19_0" index="0" speed="10.36" length="24.51" shape="-13.60,-1.60 -6.95,-0.65 -2.20,2.20 0.65,6.95 1.60,13.60"/>
    </edge>

    <edge id="-l1" from="j0" to="j1" priority="-1">
        <lane id="-l1_0" index="0" speed="16.67" length="136.40" shape="-13.60,8.00 -150.00,8.00"/>
        <lane id="-l1_1" index="1" speed="16.67" length="136.40" shape="-13.60,4.80 -150.00,4.80"/>
        <lane id="-l1_2" index="2" speed="16.67" length="136.40" shape="-13.60,1.60 -150.00,1.60"/>
    </edge>
    <edge id="-l2" from="j2" to="j0" priority="-1">
        <lane id="-l2_0" index="0" speed="16.67" length="136.40" shape="-8.00,150.00 -8.00,13.60"/>
        <lane id="-l2_1" index="1" speed="16.67" length="136.40" shape="-4.80,150.00 -4.80,13.60"/>
        <lane id="-l2_2" index="2" speed="16.67" length="136.40" shape="-1.60,150.00 -1.60,13.60"/>
    </edge>
    <edge id="-l3" from="j3" to="j0" priority="-1">
        <lane id="-l3_0" index="0" speed="16.67" length="136.40" shape="150.00,8.00 13.60,8.00"/>
        <lane id="-l3_1" index="1" speed="16.67" length="136.40" shape="150.00,4.80 13.60,4.80"/>
        <lane id="-l3_2" index="2" speed="16.67" length="136.40" shape="150.00,1.60 13.60,1.60"/>
    </edge>
    <edge id="-l4" from="j0" to="j4" priority="-1">
        <lane id="-l4_0" index="0" speed="16.67" length="136.40" shape="-8.00,-13.60 -8.00,-150.00"/>
        <lane id="-l4_1" index="1" speed="16.67" length="136.40" shape="-4.80,-13.60 -4.80,-150.00"/>
        <lane id="-l4_2" index="2" speed="16.67" length="136.40" shape="-1.60,-13.60 -1.60,-150.00"/>
    </edge>
    <edge id="l1" from="j1" to="j0" priority="-1">
        <lane id="l1_0" index="0" speed="16.67" length="136.40" shape="-150.00,-8.00 -13.60,-8.00"/>
        <lane id="l1_1" index="1" speed="16.67" length="136.40" shape="-150.00,-4.80 -13.60,-4.80"/>
        <lane id="l1_2" index="2" speed="16.67" length="136.40" shape="-150.00,-1.60 -13.60,-1.60"/>
    </edge>
    <edge id="l2" from="j0" to="j2" priority="-1">
        <lane id="l2_0" index="0" speed="16.67" length="136.40" shape="8.00,13.60 8.00,150.00"/>
        <lane id="l2_1" index="1" speed="16.67" length="136.40" shape="4.80,13.60 4.80,150.00"/>
        <lane id="l2_2" index="2" speed="16.67" length="136.40" shape="1.60,13.60 1.60,150.00"/>
    </edge>
    <edge id="l3" from="j0" to="j3" priority="-1">
        <lane id="l3_0" index="0" speed="16.67" length="136.40" shape="13.60,-8.00 150.00,-8.00"/>
        <lane id="l3_1" index="1" speed="16.67" length="136.40" shape="13.60,-4.80 150.00,-4.80"/>
        <lane id="l3_2" index="2" speed="16.67" length="136.40" shape="13.60,-1.60 150.00,-1.60"/>
    </edge>
    <edge id="l4" from="j4" to="j0" priority="-1">
        <lane id="l4_0" index="0" speed="16.67" length="136.40" shape="8.00,-150.00 8.00,-13.60"/>
        <lane id="l4_1" index="1" speed="16.67" length="136.40" shape="4.80,-150.00 4.80,-13.60"/>
        <lane id="l4_2" index="2" speed="16.67" length="136.40" shape="1.60,-150.00 1.60,-13.60"/>
    </edge>

    <tlLogic id="j0" type="static" programID="1" offset="0">
        <phase duration="42" state="GGGGGrrrrrrrrrrrrrrr"/>
        <phase duration="3"  state="yyyyyrrrrrrrrrrrrrrr"/>
        <phase duration="42" state="rrrrrGGGGGrrrrrrrrrr"/>
        <phase duration="3"  state="rrrrryyyyyrrrrrrrrrr"/>
        <phase duration="42" state="rrrrrrrrrrGGGGGrrrrr"/>
        <phase duration="3"  state="rrrrrrrrrryyyyyrrrrr"/>
        <phase duration="42" state="rrrrrrrrrrrrrrrGGGGG"/>
        <phase duration="3"  state="rrrrrrrrrrrrrrryyyyy"/>
    </tlLogic>

    <junction id="j0" type="traffic_light" x="0.00" y="0.00" incLanes="-l2_0 -l2_1 -l2_2 -l3_0 -l3_1 -l3_2 l4_0 l4_1 l4_2 l1_0 l1_1 l1_2" intLanes=":j0_0_0 :j0_1_0 :j0_1_1 :j0_1_2 :j0_4_0 :j0_5_0 :j0_6_0 :j0_6_1 :j0_6_2 :j0_9_0 :j0_10_0 :j0_11_0 :j0_11_1 :j0_11_2 :j0_14_0 :j0_15_0 :j0_16_0 :j0_16_1 :j0_16_2 :j0_19_0" shape="-9.60,13.60 9.60,13.60 10.04,11.38 10.60,10.60 11.38,10.04 12.38,9.71 13.60,9.60 13.60,-9.60 11.38,-10.04 10.60,-10.60 10.04,-11.38 9.71,-12.38 9.60,-13.60 -9.60,-13.60 -10.04,-11.38 -10.60,-10.60 -11.38,-10.04 -12.38,-9.71 -13.60,-9.60 -13.60,9.60 -11.38,10.04 -10.60,10.60 -10.04,11.38 -9.71,12.38">
        <request index="0"  response="00000000000000000000" foes="00000000000111000000" cont="0"/>
        <request index="1"  response="00000000000000000000" foes="11111100001111000000" cont="0"/>
        <request index="2"  response="00000000000000000000" foes="11111100001111000000" cont="0"/>
        <request index="3"  response="00000000000000000000" foes="11111100001111000000" cont="0"/>
        <request index="4"  response="00000011100000000000" foes="11110011101111000000" cont="0"/>
        <request index="5"  response="00000011100000000000" foes="00000011100000000000" cont="0"/>
        <request index="6"  response="00000111100000011111" foes="10000111100000011111" cont="0"/>
        <request index="7"  response="00000111100000011111" foes="10000111100000011111" cont="0"/>
        <request index="8"  response="00000111100000011111" foes="10000111100000011111" cont="0"/>
        <request index="9"  response="01110111100000011110" foes="01110111100000011110" cont="0"/>
        <request index="10" response="00000000000000000000" foes="01110000000000000000" cont="0"/>
        <request index="11" response="00000000000000000000" foes="11110000001111110000" cont="0"/>
        <request index="12" response="00000000000000000000" foes="11110000001111110000" cont="0"/>
        <request index="13" response="00000000000000000000" foes="11110000001111110000" cont="0"/>
        <request index="14" response="00000000000000001110" foes="11110000001111001110" cont="0"/>
        <request index="15" response="00000000000000001110" foes="00000000000000001110" cont="0"/>
        <request index="16" response="00000111110000011110" foes="00000111111000011110" cont="0"/>
        <request index="17" response="00000111110000011110" foes="00000111111000011110" cont="0"/>
        <request index="18" response="00000111110000011110" foes="00000111111000011110" cont="0"/>
        <request index="19" response="00000111100111011110" foes="00000111100111011110" cont="0"/>
    </junction>
    <junction id="j1" type="dead_end" x="-150.00" y="0.00" incLanes="-l1_0 -l1_1 -l1_2" intLanes="" shape="-150.00,0.00 -150.00,9.60 -150.00,0.00"/>
    <junction id="j2" type="dead_end" x="0.00" y="150.00" incLanes="l2_0 l2_1 l2_2" intLanes="" shape="0.00,150.00 9.60,150.00 0.00,150.00"/>
    <junction id="j3" type="dead_end" x="150.00" y="0.00" incLanes="l3_0 l3_1 l3_2" intLanes="" shape="150.00,0.00 150.00,-9.60 150.00,0.00"/>
    <junction id="j4" type="dead_end" x="0.00" y="-150.00" incLanes="-l4_0 -l4_1 -l4_2" intLanes="" shape="0.00,-150.00 -9.60,-150.00 0.00,-150.00"/>

    <connection from="-l2" to="-l1" fromLane="0" toLane="0" via=":j0_0_0" tl="j0" linkIndex="0" dir="r" state="O"/>
    <connection from="-l2" to="-l4" fromLane="0" toLane="0" via=":j0_1_0" tl="j0" linkIndex="1" dir="s" state="O"/>
    <connection from="-l2" to="-l4" fromLane="1" toLane="1" via=":j0_1_1" tl="j0" linkIndex="2" dir="s" state="O"/>
    <connection from="-l2" to="-l4" fromLane="2" toLane="2" via=":j0_1_2" tl="j0" linkIndex="3" dir="s" state="O"/>
    <connection from="-l2" to="l3" fromLane="2" toLane="2" via=":j0_4_0" tl="j0" linkIndex="4" dir="l" state="o"/>
    <connection from="-l3" to="l2" fromLane="0" toLane="0" via=":j0_5_0" tl="j0" linkIndex="5" dir="r" state="o"/>
    <connection from="-l3" to="-l1" fromLane="0" toLane="0" via=":j0_6_0" tl="j0" linkIndex="6" dir="s" state="o"/>
    <connection from="-l3" to="-l1" fromLane="1" toLane="1" via=":j0_6_1" tl="j0" linkIndex="7" dir="s" state="o"/>
    <connection from="-l3" to="-l1" fromLane="2" toLane="2" via=":j0_6_2" tl="j0" linkIndex="8" dir="s" state="o"/>
    <connection from="-l3" to="-l4" fromLane="2" toLane="2" via=":j0_9_0" tl="j0" linkIndex="9" dir="l" state="o"/>
    <connection from="l1" to="-l4" fromLane="0" toLane="0" via=":j0_15_0" tl="j0" linkIndex="15" dir="r" state="o"/>
    <connection from="l1" to="l3" fromLane="0" toLane="0" via=":j0_16_0" tl="j0" linkIndex="16" dir="s" state="o"/>
    <connection from="l1" to="l3" fromLane="1" toLane="1" via=":j0_16_1" tl="j0" linkIndex="17" dir="s" state="o"/>
    <connection from="l1" to="l3" fromLane="2" toLane="2" via=":j0_16_2" tl="j0" linkIndex="18" dir="s" state="o"/>
    <connection from="l1" to="l2" fromLane="2" toLane="2" via=":j0_19_0" tl="j0" linkIndex="19" dir="l" state="o"/>
    <connection from="l4" to="l3" fromLane="0" toLane="0" via=":j0_10_0" tl="j0" linkIndex="10" dir="r" state="O"/>
    <connection from="l4" to="l2" fromLane="0" toLane="0" via=":j0_11_0" tl="j0" linkIndex="11" dir="s" state="O"/>
    <connection from="l4" to="l2" fromLane="1" toLane="1" via=":j0_11_1" tl="j0" linkIndex="12" dir="s" state="O"/>
    <connection from="l4" to="l2" fromLane="2" toLane="2" via=":j0_11_2" tl="j0" linkIndex="13" dir="s" state="O"/>
    <connection from="l4" to="-l1" fromLane="2" toLane="2" via=":j0_14_0" tl="j0" linkIndex="14" dir="l" state="o"/>

    <connection from=":j0_0" to="-l1" fromLane="0" toLane="0" dir="r" state="M"/>
    <connection from=":j0_1" to="-l4" fromLane="0" toLane="0" dir="s" state="M"/>
    <connection from=":j0_1" to="-l4" fromLane="1" toLane="1" dir="s" state="M"/>
    <connection from=":j0_1" to="-l4" fromLane="2" toLane="2" dir="s" state="M"/>
    <connection from=":j0_4" to="l3" fromLane="0" toLane="2" dir="l" state="M"/>
    <connection from=":j0_5" to="l2" fromLane="0" toLane="0" dir="r" state="M"/>
    <connection from=":j0_6" to="-l1" fromLane="0" toLane="0" dir="s" state="M"/>
    <connection from=":j0_6" to="-l1" fromLane="1" toLane="1" dir="s" state="M"/>
    <connection from=":j0_6" to="-l1" fromLane="2" toLane="2" dir="s" state="M"/>
    <connection from=":j0_9" to="-l4" fromLane="0" toLane="2" dir="l" state="M"/>
    <connection from=":j0_10" to="l3" fromLane="0" toLane="0" dir="r" state="M"/>
    <connection from=":j0_11" to="l2" fromLane="0" toLane="0" dir="s" state="M"/>
    <connection from=":j0_11" to="l2" fromLane="1" toLane="1" dir="s" state="M"/>
    <connection from=":j0_11" to="l2" fromLane="2" toLane="2" dir="s" state="M"/>
    <connection from=":j0_14" to="-l1" fromLane="0" toLane="2" dir="l" state="M"/>
    <connection from=":j0_15" to="-l4" fromLane="0" toLane="0" dir="r" state="M"/>
    <connection from=":j0_16" to="l3" fromLane="0" toLane="0" dir="s" state="M"/>
    <connection from=":j0_16" to="l3" fromLane="1" toLane="1" dir="s" state="M"/>
    <connection from=":j0_16" to="l3" fromLane="2" toLane="2" dir="s" state="M"/>
    <connection from=":j0_19" to="l2" fromLane="0" toLane="2" dir="l" state="M"/>

</net>
