<?xml version="1.0" encoding="UTF-8"?>
<!-- generated on 2021-05-11 12:54:48.340713 by $Id$ UNKNOWN
  options: -o ./sumo_files/single_intersection/trips.trips.xml -n ./sumo_files/single_intersection/single_intersection.net.xml -a ./sumo_files/single_intersection/single_intersection.add.xml <doubleminus>trip-attribute=type="dist0" departLane="best" departSpeed="max" departPos="random" <doubleminus>route-file ./sumo_files/single_intersection/single_intersection9.rou.xml -L <doubleminus>random <doubleminus>vtype-output vtypeout.xml <doubleminus>prefix a9a -p 0.5 -b 3200.0 -e 3600.0
-->
<routes xmlns:xsi="http://www.w3.org/2001/XMLSchema-instance" xsi:noNamespaceSchemaLocation="http://sumo.dlr.de/xsd/routes_file.xsd">
    <trip id="a9a0" depart="3200.00" from="-l2" to="l2" type="dist0" departLane="best" departSpeed="max" departPos="random"/>
    <trip id="a9a1" depart="3200.50" from="l4" to="l2" type="dist0" departLane="best" departSpeed="max" departPos="random"/>
    <trip id="a9a2" depart="3201.00" from="l1" to="-l1" type="dist0" departLane="best" departSpeed="max" departPos="random"/>
    <trip id="a9a3" depart="3201.50" from="l1" to="l2" type="dist0" departLane="best" departSpeed="max" departPos="random"/>
    <trip id="a9a4" depart="3202.00" from="-l3" to="l2" type="dist0" departLane="best" departSpeed="max" departPos="random"/>
    <trip id="a9a5" depart="3202.50" from="-l2" to="l2" type="dist0" departLane="best" departSpeed="max" departPos="random"/>
    <trip id="a9a6" depart="3203.00" from="-l2" to="-l4" type="dist0" departLane="best" departSpeed="max" departPos="random"/>
    <trip id="a9a7" depart="3203.50" from="l1" to="-l1" type="dist0" departLane="best" departSpeed="max" departPos="random"/>
    <trip id="a9a8" depart="3204.00" from="-l2" to="l3" type="dist0" departLane="best" departSpeed="max" departPos="random"/>
    <trip id="a9a9" depart="3204.50" from="l1" to="-l4" type="dist0" departLane="best" departSpeed="max" departPos="random"/>
    <trip id="a9a10" depart="3205.00" from="l4" to="-l1" type="dist0" departLane="best" departSpeed="max" departPos="random"/>
    <trip id="a9a11" depart="3205.50" from="l4" to="l2" type="dist0" departLane="best" departSpeed="max" departPos="random"/>
    <trip id="a9a12" depart="3206.00" from="-l2" to="l2" type="dist0" departLane="best" departSpeed="max" departPos="random"/>
    <trip id="a9a13" depart="3206.50" from="-l2" to="l2" type="dist0" departLane="best" departSpeed="max" departPos="random"/>
    <trip id="a9a14" depart="3207.00" from="-l2" to="l3" type="dist0" departLane="best" departSpeed="max" departPos="random"/>
    <trip id="a9a15" depart="3207.50" from="l1" to="l3" type="dist0" departLane="best" departSpeed="max" departPos="random"/>
    <trip id="a9a16" depart="3208.00" from="l1" to="-l4" type="dist0" departLane="best" departSpeed="max" departPos="random"/>
    <trip id="a9a17" depart="3208.50" from="l4" to="l3" type="dist0" departLane="best" departSpeed="max" departPos="random"/>
    <trip id="a9a18" depart="3209.00" from="l4" to="-l4" type="dist0" departLane="best" departSpeed="max" departPos="random"/>
    <trip id="a9a19" depart="3209.50" from="-l3" to="-l1" type="dist0" departLane="best" departSpeed="max" departPos="random"/>
    <trip id="a9a20" depart="3210.00" from="l4" to="l3" type="dist0" departLane="best" departSpeed="max" departPos="random"/>
    <trip id="a9a21" depart="3210.50" from="-l3" to="-l4" type="dist0" departLane="best" departSpeed="max" departPos="random"/>
    <trip id="a9a22" depart="3211.00" from="l1" to="-l4" type="dist0" departLane="best" departSpeed="max" departPos="random"/>
    <trip id="a9a23" depart="3211.50" from="l4" to="-l4" type="dist0" departLane="best" departSpeed="max" departPos="random"/>
    <trip id="a9a24" depart="3212.00" from="l4" to="l2" type="dist0" departLane="best" departSpeed="max" departPos="random"/>
    <trip id="a9a25" depart="3212.50" from="-l2" to="-l1" type="dist0" departLane="best" departSpeed="max" departPos="random"/>
    <trip id="a9a26" depart="3213.00" from="-l2" to="-l1" type="dist0" departLane="best" departSpeed="max" departPos="random"/>
    <trip id="a9a27" depart="3213.50" from="-l3" to="-l1" type="dist0" departLane="best" departSpeed="max" departPos="random"/>
    <trip id="a9a28" depart="3214.00" from="-l2" to="-l1" type="dist0" departLane="best" departSpeed="max" departPos="random"/>
    <trip id="a9a29" depart="3214.50" from="l4" to="l3" type="dist0" departLane="best" departSpeed="max" departPos="random"/>
    <trip id="a9a30" depart="3215.00" from="l4" to="-l4" type="dist0" departLane="best" departSpeed="max" departPos="random"/>
    <trip id="a9a31" depart="3215.50" from="-l3" to="l3" type="dist0" departLane="best" departSpeed="max" departPos="random"/>
    <trip id="a9a32" depart="3216.00" from="l1" to="l3" type="dist0" departLane="best" departSpeed="max" departPos="random"/>
    <trip id="a9a33" depart="3216.50" from="-l3" to="l3" type="dist0" departLane="best" departSpeed="max" departPos="random"/>
    <trip id="a9a34" depart="3217.00" from="-l2" to="-l4" type="dist0" departLane="best" departSpeed="max" departPos="random"/>
    <trip id="a9a35" depart="3217.50" from="-l3" to="-l1" type="dist0" departLane="best" departSpeed="max" departPos="random"/>
    <trip id="a9a36" depart="3218.00" from="-l2" to="-l1" type="dist0" departLane="best" departSpeed="max" departPos="random"/>
    <trip id="a9a37" depart="3218.50" from="l1" to="l2" type="dist0" departLane="best" departSpeed="max" departPos="random"/>
    <trip id="a9a38" depart="3219.00" from="-l3" to="l3" type="dist0" departLane="best" departSpeed="max" departPos="random"/>
    <trip id="a9a39" depart="3219.50" from="l4" to="l3" type="dist0" departLane="best" departSpeed="max" departPos="random"/>
    <trip id="a9a40" depart="3220.00" from="l1" to="-l4" type="dist0" departLane="best" departSpeed="max" departPos="random"/>
    <trip id="a9a41" depart="3220.50" from="-l2" to="l3" type="dist0" departLane="best" departSpeed="max" departPos="random"/>
    <trip id="a9a42" depart="3221.00" from="-l3" to="-l1" type="dist0" departLane="best" departSpeed="max" departPos="random"/>
    <trip id="a9a43" depart="3221.50" from="-l2" to="l2" type="dist0" departLane="best" departSpeed="max" departPos="random"/>
    <trip id="a9a44" depart="3222.00" from="l4" to="l2" type="dist0" departLane="best" departSpeed="max" departPos="random"/>
    <trip id="a9a45" depart="3222.50" from="-l3" to="-l1" type="dist0" departLane="best" departSpeed="max" departPos="random"/>
    <trip id="a9a46" depart="3223.00" from="l4" to="-l1" type="dist0" departLane="best" departSpeed="max" departPos="random"/>
    <trip id="a9a47" depart="3223.50" from="l1" to="-l4" type="dist0" departLane="best" departSpeed="max" departPos="random"/>
    <trip id="a9a48" depart="3224.00" from="-l3" to="-l4" type="dist0" departLane="best" departSpeed="max" departPos="random"/>
    <trip id="a9a49" depart="3224.50" from="-l3" to="l3" type="dist0" departLane="best" departSpeed="max" departPos="random"/>
    <trip id="a9a50" depart="3225.00" from="l4" to="-l1" type="dist0" departLane="best" departSpeed="max" departPos="random"/>
    <trip id="a9a51" depart="3225.50" from="l1" to="-l4" type="dist0" departLane="best" departSpeed="max" departPos="random"/>
    <trip id="a9a52" depart="3226.00" from="l1" to="l2" type="dist0" departLane="best" departSpeed="max" departPos="random"/>
    <trip id="a9a53" depart="3226.50" from="-l2" to="-l4" type="dist0" departLane="best" departSpeed="max" departPos="random"/>
    <trip id="a9a54" depart="3227.00" from="-l3" to="-l1" type="dist0" departLane="best" departSpeed="max" departPos="random"/>
    <trip id="a9a55" depart="3227.50" from="-l2" to="-l4" type="dist0" departLane="best" departSpeed="max" departPos="random"/>
    <trip id="a9a56" depart="3228.00" from="-l3" to="l2" type="dist0" departLane="best" departSpeed="max" departPos="random"/>
    <trip id="a9a57" depart="3228.50" from="-l2" to="l2" type="dist0" departLane="best" departSpeed="max" departPos="random"/>
    <trip id="a9a58" depart="3229.00" from="l4" to="l2" type="dist0" departLane="best" departSpeed="max" departPos="random"/>
    <trip id="a9a59" depart="3229.50" from="l1" to="-l1" type="dist0" departLane="best" departSpeed="max" departPos="random"/>
    <trip id="a9a60" depart="3230.00" from="-l2" to="l2" type="dist0" departLane="best" departSpeed="max" departPos="random"/>
    <trip id="a9a61" depart="3230.50" from="-l3" to="l2" type="dist0" departLane="best" departSpeed="max" departPos="random"/>
    <trip id="a9a62" depart="3231.00" from="-l2" to="l3" type="dist0" departLane="best" departSpeed="max" departPos="random"/>
    <trip id="a9a63" depart="3231.50" from="-l2" to="-l4" type="dist0" departLane="best" departSpeed="max" departPos="random"/>
    <trip id="a9a64" depart="3232.00" from="-l2" to="-l4" type="dist0" departLane="best" departSpeed="max" departPos="random"/>
    <trip id="a9a65" depart="3232.50" from="l4" to="l2" type="dist0" departLane="best" departSpeed="max" departPos="random"/>
    <trip id="a9a66" depart="3233.00" from="l1" to="-l4" type="dist0" departLane="best" departSpeed="max" departPos="random"/>
    <trip id="a9a67" depart="3233.50" from="-l2" to="l2" type="dist0" departLane="best" departSpeed="max" departPos="random"/>
    <trip id="a9a68" depart="3234.00" from="-l2" to="l3" type="dist0" departLane="best" departSpeed="max" departPos="random"/>
    <trip id="a9a69" depart="3234.50" from="-l2" to="l3" type="dist0" departLane="best" departSpeed="max" departPos="random"/>
    <trip id="a9a70" depart="3235.00" from="-l2" to="-l1" type="dist0" departLane="best" departSpeed="max" departPos="random"/>
    <trip id="a9a71" depart="3235.50" from="-l3" to="-l1" type="dist0" departLane="best" departSpeed="max" departPos="random"/>
    <trip id="a9a72" depart="3236.00" from="-l3" to="-l4" type="dist0" departLane="best" departSpeed="max" departPos="random"/>
    <trip id="a9a73" depart="3236.50" from="l1" to="-l1" type="dist0" departLane="best" departSpeed="max" departPos="random"/>
    <trip id="a9a74" depart="3237.00" from="l4" to="l2" type="dist0" departLane="best" departSpeed="max" departPos="random"/>
    <trip id="a9a75" depart="3237.50" from="l1" to="l2" type="dist0" departLane="best" departSpeed="max" departPos="random"/>
    <trip id="a9a76" depart="3238.00" from="-l2" to="l2" type="dist0" departLane="best" departSpeed="max" departPos="random"/>
    <trip id="a9a77" depart="3238.50" from="l4" to="-l1" type="dist0" departLane="best" departSpeed="max" departPos="random"/>
    <trip id="a9a78" depart="3239.00" from="-l3" to="-l1" type="dist0" departLane="best" departSpeed="max" departPos="random"/>
    <trip id="a9a79" depart="3239.50" from="-l2" to="l2" type="dist0" departLane="best" departSpeed="max" departPos="random"/>
    <trip id="a9a80" depart="3240.00" from="-l3" to="-l4" type="dist0" departLane="best" departSpeed="max" departPos="random"/>
    <trip id="a9a81" depart="3240.50" from="-l2" to="-l4" type="dist0" departLane="best" departSpeed="max" departPos="random"/>
    <trip id="a9a82" depart="3241.00" from="-l2" to="l3" type="dist0" departLane="best" departSpeed="max" departPos="random"/>
    <trip id="a9a83" depart="3241.50" from="l4" to="l2" type="dist0" departLane="best" departSpeed="max" departPos="random"/>
    <trip id="a9a84" depart="3242.00" from="l4" to="-l4" type="dist0" departLane="best" departSpeed="max" departPos="random"/>
    <trip id="a9a85" depart="3242.50" from="l4" to="-l4" type="dist0" departLane="best" departSpeed="max" departPos="random"/>
    <trip id="a9a86" depart="3243.00" from="l4" to="-l1" type="dist0" departLane="best" departSpeed="max" departPos="random"/>
    <trip id="a9a87" depart="3243.50" from="l4" to="l3" type="dist0" departLane="best" departSpeed="max" departPos="random"/>
    <trip id="a9a88" depart="3244.00" from="-l3" to="l2" type="dist0" departLane="best" departSpeed="max" departPos="random"/>
    <trip id="a9a89" depart="3244.50" from="-l3" to="l3" type="dist0" departLane="best" departSpeed="max" departPos="random"/>
    <trip id="a9a90" depart="3245.00" from="-l2" to="l3" type="dist0" departLane="best" departSpeed="max" departPos="random"/>
    <trip id="a9a91" depart="3245.50" from="-l2" to="l3" type="dist0" departLane="best" departSpeed="max" departPos="random"/>
    <trip id="a9a92" depart="3246.00" from="-l2" to="l3" type="dist0" departLane="best" departSpeed="max" departPos="random"/>
    <trip id="a9a93" depart="3246.50" from="-l3" to="-l4" type="dist0" departLane="best" departSpeed="max" departPos="random"/>
    <trip id="a9a94" depart="3247.00" from="l4" to="-l4" type="dist0" departLane="best" departSpeed="max" departPos="random"/>
    <trip id="a9a95" depart="3247.50" from="l4" to="l3" type="dist0" departLane="best" departSpeed="max" departPos="random"/>
    <trip id="a9a96" depart="3248.00" from="-l2" to="l3" type="dist0" departLane="best" departSpeed="max" departPos="random"/>
    <trip id="a9a97" depart="3248.50" from="-l2" to="-l1" type="dist0" departLane="best" departSpeed="max" departPos="random"/>
    <trip id="a9a98" depart="3249.00" from="l4" to="l3" type="dist0" departLane="best" departSpeed="max" departPos="random"/>
    <trip id="a9a99" depart="3249.50" from="l4" to="l2" type="dist0" departLane="best" departSpeed="max" departPos="random"/>
    <trip id="a9a100" depart="3250.00" from="l4" to="l3" type="dist0" departLane="best" departSpeed="max" departPos="random"/>
    <trip id="a9a101" depart="3250.50" from="l4" to="l3" type="dist0" departLane="best" departSpeed="max" departPos="random"/>
    <trip id="a9a102" depart="3251.00" from="-l3" to="-l1" type="dist0" departLane="best" departSpeed="max" departPos="random"/>
    <trip id="a9a103" depart="3251.50" from="l1" to="-l1" type="dist0" departLane="best" departSpeed="max" departPos="random"/>
    <trip id="a9a104" depart="3252.00" from="-l2" to="-l1" type="dist0" departLane="best" departSpeed="max" departPos="random"/>
    <trip id="a9a105" depart="3252.50" from="-l2" to="-l1" type="dist0" departLane="best" departSpeed="max" departPos="random"/>
    <trip id="a9a106" depart="3253.00" from="l1" to="l2" type="dist0" departLane="best" departSpeed="max" departPos="random"/>
    <trip id="a9a107" depart="3253.50" from="l1" to="-l1" type="dist0" departLane="best" departSpeed="max" departPos="random"/>
    <trip id="a9a108" depart="3254.00" from="-l2" to="l2" type="dist0" departLane="best" departSpeed="max" departPos="random"/>
    <trip id="a9a109" depart="3254.50" from="-l2" to="l3" type="dist0" departLane="best" departSpeed="max" departPos="random"/>
    <trip id="a9a110" depart="3255.00" from="l4" to="l2" type="dist0" departLane="best" departSpeed="max" departPos="random"/>
    <trip id="a9a111" depart="3255.50" from="l4" to="l3" type="dist0" departLane="best" departSpeed="max" departPos="random"/>
    <trip id="a9a112" depart="3256.00" from="l4" to="l2" type="dist0" departLane="best" departSpeed="max" departPos="random"/>
    <trip id="a9a113" depart="3256.50" from="l1" to="-l4" type="dist0" departLane="best" departSpeed="max" departPos="random"/>
    <trip id="a9a114" depart="3257.00" from="l1" to="l3" type="dist0" departLane="best" departSpeed="max" departPos="random"/>
    <trip id="a9a115" depart="3257.50" from="-l2" to="-l4" type="dist0" departLane="best" departSpeed="max" departPos="random"/>
    <trip id="a9a116" depart="3258.00" from="l4" to="-l1" type="dist0" departLane="best" departSpeed="max" departPos="random"/>
    <trip id="a9a117" depart="3258.50" from="-l2" to="l2" type="dist0" departLane="best" departSpeed="max" departPos="random"/>
    <trip id="a9a118" depart="3259.00" from="-l2" to="-l1" type="dist0" departLane="best" departSpeed="max" departPos="random"/>
    <trip id="a9a119" depart="3259.50" from="-l2" to="l2" type="dist0" departLane="best" departSpeed="max" departPos="random"/>
    <trip id="a9a120" depart="3260.00" from="l1" to="-l1" type="dist0" departLane="best" departSpeed="max" departPos="random"/>
    <trip id="a9a121" depart="3260.50" from="-l2" to="-l1" type="dist0" departLane="best" departSpeed="max" departPos="random"/>
    <trip id="a9a122" depart="3261.00" from="-l2" to="-l1" type="dist0" departLane="best" departSpeed="max" departPos="random"/>
    <trip id="a9a123" depart="3261.50" from="-l3" to="l3" type="dist0" departLane="best" departSpeed="max" departPos="random"/>
    <trip id="a9a124" depart="3262.00" from="l1" to="l2" type="dist0" departLane="best" departSpeed="max" departPos="random"/>
    <trip id="a9a125" depart="3262.50" from="l4" to="l3" type="dist0" departLane="best" departSpeed="max" departPos="random"/>
    <trip id="a9a126" depart="3263.00" from="l4" to="l3" type="dist0" departLane="best" departSpeed="max" departPos="random"/>
    <trip id="a9a127" depart="3263.50" from="l4" to="l2" type="dist0" departLane="best" departSpeed="max" departPos="random"/>
    <trip id="a9a128" depart="3264.00" from="-l2" to="l3" type="dist0" departLane="best" departSpeed="max" departPos="random"/>
    <trip id="a9a129" depart="3264.50" from="l4" to="l3" type="dist0" departLane="best" departSpeed="max" departPos="random"/>
    <trip id="a9a130" depart="3265.00" from="l1" to="l3" type="dist0" departLane="best" departSpeed="max" departPos="random"/>
    <trip id="a9a131" depart="3265.50" from="-l2" to="l2" type="dist0" departLane="best" departSpeed="max" departPos="random"/>
    <trip id="a9a132" depart="3266.00" from="l1" to="l2" type="dist0" departLane="best" departSpeed="max" departPos="random"/>
    <trip id="a9a133" depart="3266.50" from="l4" to="-l4" type="dist0" departLane="best" departSpeed="max" departPos="random"/>
    <trip id="a9a134" depart="3267.00" from="-l3" to="l2" type="dist0" departLane="best" departSpeed="max" departPos="random"/>
    <trip id="a9a135" depart="3267.50" from="l1" to="-l1" type="dist0" departLane="best" departSpeed="max" departPos="random"/>
    <trip id="a9a136" depart="3268.00" from="l4" to="l2" type="dist0" departLane="best" departSpeed="max" departPos="random"/>
    <trip id="a9a137" depart="3268.50" from="l1" to="-l1" type="dist0" departLane="best" departSpeed="max" departPos="random"/>
    <trip id="a9a138" depart="3269.00" from="-l2" to="l3" type="dist0" departLane="best" departSpeed="max" departPos="random"/>
    <trip id="a9a139" depart="3269.50" from="l4" to="-l4" type="dist0" departLane="best" departSpeed="max" departPos="random"/>
    <trip id="a9a140" depart="3270.00" from="-l3" to="l3" type="dist0" departLane="best" departSpeed="max" departPos="random"/>
    <trip id="a9a141" depart="3270.50" from="l1" to="-l1" type="dist0" departLane="best" departSpeed="max" departPos="random"/>
    <trip id="a9a142" depart="3271.00" from="-l2" to="l3" type="dist0" departLane="best" departSpeed="max" departPos="random"/>
    <trip id="a9a143" depart="3271.50" from="l1" to="-l4" type="dist0" departLane="best" departSpeed="max" departPos="random"/>
    <trip id="a9a144" depart="3272.00" from="-l3" to="-l1" type="dist0" departLane="best" departSpeed="max" departPos="random"/>
    <trip id="a9a145" depart="3272.50" from="-l3" to="l2" type="dist0" departLane="best" departSpeed="max" departPos="random"/>
    <trip id="a9a146" depart="3273.00" from="l4" to="l2" type="dist0" departLane="best" departSpeed="max" departPos="random"/>
    <trip id="a9a147" depart="3273.50" from="-l2" to="-l4" type="dist0" departLane="best" departSpeed="max" departPos="random"/>
    <trip id="a9a148" depart="3274.00" from="l4" to="l2" type="dist0" departLane="best" departSpeed="max" departPos="random"/>
    <trip id="a9a149" depart="3274.50" from="l4" to="l3" type="dist0" departLane="best" departSpeed="max" departPos="random"/>
    <trip id="a9a150" depart="3275.00" from="-l3" to="-l1" type="dist0" departLane="best" departSpeed="max" departPos="random"/>
    <trip id="a9a151" depart="3275.50" from="l1" to="-l1" type="dist0" departLane="best" departSpeed="max" departPos="random"/>
    <trip id="a9a152" depart="3276.00" from="l4" to="-l4" type="dist0" departLane="best" departSpeed="max" departPos="random"/>
    <trip id="a9a153" depart="3276.50" from="l4" to="-l4" type="dist0" departLane="best" departSpeed="max" departPos="random"/>
    <trip id="a9a154" depart="3277.00" from="l4" to="-l1" type="dist0" departLane="best" departSpeed="max" departPos="random"/>
    <trip id="a9a155" depart="3277.50" from="l4" to="l3" type="dist0" departLane="best" departSpeed="max" departPos="random"/>
    <trip id="a9a156" depart="3278.00" from="l4" to="l2" type="dist0" departLane="best" departSpeed="max" departPos="random"/>
    <trip id="a9a157" depart="3278.50" from="l4" to="-l4" type="dist0" departLane="best" departSpeed="max" departPos="random"/>
    <trip id="a9a158" depart="3279.00" from="l1" to="-l4" type="dist0" departLane="best" departSpeed="max" departPos="random"/>
    <trip id="a9a159" depart="3279.50" from="-l3" to="l2" type="dist0" departLane="best" departSpeed="max" departPos="random"/>
    <trip id="a9a160" depart="3280.00" from="-l2" to="-l1" type="dist0" departLane="best" departSpeed="max" departPos="random"/>
    <trip id="a9a161" depart="3280.50" from="l4" to="-l4" type="dist0" departLane="best" departSpeed="max" departPos="random"/>
    <trip id="a9a162" depart="3281.00" from="l4" to="l2" type="dist0" departLane="best" departSpeed="max" departPos="random"/>
    <trip id="a9a163" depart="3281.50" from="-l2" to="-l1" type="dist0" departLane="best" departSpeed="max" departPos="random"/>
    <trip id="a9a164" depart="3282.00" from="l4" to="l2" type="dist0" departLane="best" departSpeed="max" departPos="random"/>
    <trip id="a9a165" depart="3282.50" from="l4" to="-l1" type="dist0" departLane="best" departSpeed="max" departPos="random"/>
    <trip id="a9a166" depart="3283.00" from="l4" to="l2" type="dist0" departLane="best" departSpeed="max" departPos="random"/>
    <trip id="a9a167" depart="3283.50" from="l1" to="l2" type="dist0" departLane="best" departSpeed="max" departPos="random"/>
    <trip id="a9a168" depart="3284.00" from="-l3" to="l2" type="dist0" departLane="best" departSpeed="max" departPos="random"/>
    <trip id="a9a169" depart="3284.50" from="-l3" to="-l4" type="dist0" departLane="best" departSpeed="max" departPos="random"/>
    <trip id="a9a170" depart="3285.00" from="l1" to="l3" type="dist0" departLane="best" departSpeed="max" departPos="random"/>
    <trip id="a9a171" depart="3285.50" from="l1" to="-l1" type="dist0" departLane="best" departSpeed="max" departPos="random"/>
    <trip id="a9a172" depart="3286.00" from="l4" to="-l4" type="dist0" departLane="best" departSpeed="max" departPos="random"/>
    <trip id="a9a173" depart="3286.50" from="l4" to="-l4" type="dist0" departLane="best" departSpeed="max" departPos="random"/>
    <trip id="a9a174" depart="3287.00" from="l4" to="-l1" type="dist0" departLane="best" departSpeed="max" departPos="random"/>
    <trip id="a9a175" depart="3287.50" from="l4" to="-l4" type="dist0" departLane="best" departSpeed="max" departPos="random"/>
    <trip id="a9a176" depart="3288.00" from="l4" to="-l1" type="dist0" departLane="best" departSpeed="max" departPos="random"/>
    <trip id="a9a177" depart="3288.50" from="l1" to="-l1" type="dist0" departLane="best" departSpeed="max" departPos="random"/>
    <trip id="a9a178" depart="3289.00" from="-l2" to="l3" type="dist0" departLane="best" departSpeed="max" departPos="random"/>
    <trip id="a9a179" depart="3289.50" from="-l2" to="l2" type="dist0" departLane="best" departSpeed="max" departPos="random"/>
    <trip id="a9a180" depart="3290.00" from="l1" to="l3" type="dist0" departLane="best" departSpeed="max" departPos="random"/>
    <trip id="a9a181" depart="3290.50" from="l4" to="l3" type="dist0" departLane="best" departSpeed="max" departPos="random"/>
    <trip id="a9a182" depart="3291.00" from="-l2" to="l3" type="dist0" departLane="best" departSpeed="max" departPos="random"/>
    <trip id="a9a183" depart="3291.50" from="-l2" to="-l1" type="dist0" departLane="best" departSpeed="max" departPos="random"/>
    <trip id="a9a184" depart="3292.00" from="l4" to="l2" type="dist0" departLane="best" departSpeed="max" departPos="random"/>
    <trip id="a9a185" depart="3292.50" from="-l3" to="l2" type="dist0" departLane="best" departSpeed="max" departPos="random"/>
    <trip id="a9a186" depart="3293.00" from="-l2" to="-l4" type="dist0" departLane="best" departSpeed="max" departPos="random"/>
    <trip id="a9a187" depart="3293.50" from="-l2" to="-l1" type="dist0" departLane="best" departSpeed="max" departPos="random"/>
    <trip id="a9a188" depart="3294.00" from="l4" to="-l1" type="dist0" departLane="best" departSpeed="max" departPos="random"/>
    <trip id="a9a189" depart="3294.50" from="l1" to="l3" type="dist0" departLane="best" departSpeed="max" departPos="random"/>
    <trip id="a9a190" depart="3295.00" from="-l3" to="l2" type="dist0" departLane="best" departSpeed="max" departPos="random"/>
    <trip id="a9a191" depart="3295.50" from="l4" to="l2" type="dist0" departLane="best" departSpeed="max" departPos="random"/>
    <trip id="a9a192" depart="3296.00" from="l1" to="-l1" type="dist0" departLane="best" departSpeed="max" departPos="random"/>
    <trip id="a9a193" depart="3296.50" from="l1" to="-l4" type="dist0" departLane="best" departSpeed="max" departPos="random"/>
    <trip id="a9a194" depart="3297.00" from="l1" to="l3" type="dist0" departLane="best" departSpeed="max" departPos="random"/>
    <trip id="a9a195" depart="3297.50" from="-l2" to="-l1" type="dist0" departLane="best" departSpeed="max" departPos="random"/>
    <trip id="a9a196" depart="3298.00" from="l1" to="l3" type="dist0" departLane="best" departSpeed="max" departPos="random"/>
    <trip id="a9a197" depart="3298.50" from="-l3" to="l3" type="dist0" departLane="best" departSpeed="max" departPos="random"/>
    <trip id="a9a198" depart="3299.00" from="-l2" to="l2" type="dist0" departLane="best" departSpeed="max" departPos="random"/>
    <trip id="a9a199" depart="3299.50" from="l4" to="l2" type="dist0" departLane="best" departSpeed="max" departPos="random"/>
    <trip id="a9a200" depart="3300.00" from="-l2" to="-l4" type="dist0" departLane="best" departSpeed="max" departPos="random"/>
    <trip id="a9a201" depart="3300.50" from="-l3" to="-l1" type="dist0" departLane="best" departSpeed="max" departPos="random"/>
    <trip id="a9a202" depart="3301.00" from="-l2" to="-l1" type="dist0" departLane="best" departSpeed="max" departPos="random"/>
    <trip id="a9a203" depart="3301.50" from="l4" to="-l4" type="dist0" departLane="best" departSpeed="max" departPos="random"/>
    <trip id="a9a204" depart="3302.00" from="-l2" to="l2" type="dist0" departLane="best" departSpeed="max" departPos="random"/>
    <trip id="a9a205" depart="3302.50" from="-l3" to="l3" type="dist0" departLane="best" departSpeed="max" departPos="random"/>
    <trip id="a9a206" depart="3303.00" from="-l3" to="-l4" type="dist0" departLane="best" departSpeed="max" departPos="random"/>
    <trip id="a9a207" depart="3303.50" from="l1" to="-l4" type="dist0" departLane="best" departSpeed="max" departPos="random"/>
    <trip id="a9a208" depart="3304.00" from="l1" to="-l1" type="dist0" departLane="best" departSpeed="max" departPos="random"/>
    <trip id="a9a209" depart="3304.50" from="l4" to="l2" type="dist0" departLane="best" departSpeed="max" departPos="random"/>
    <trip id="a9a210" depart="3305.00" from="-l2" to="l2" type="dist0" departLane="best" departSpeed="max" departPos="random"/>
    <trip id="a9a211" depart="3305.50" from="-l2" to="-l4" type="dist0" departLane="best" departSpeed="max" departPos="random"/>
    <trip id="a9a212" depart="3306.00" from="-l3" to="-l4" type="dist0" departLane="best" departSpeed="max" departPos="random"/>
    <trip id="a9a213" depart="3306.50" from="-l3" to="l3" type="dist0" departLane="best" departSpeed="max" departPos="random"/>
    <trip id="a9a214" depart="3307.00" from="l1" to="-l4" type="dist0" departLane="best" departSpeed="max" departPos="random"/>
    <trip id="a9a215" depart="3307.50" from="l4" to="l3" type="dist0" departLane="best" departSpeed="max" departPos="random"/>
    <trip id="a9a216" depart="3308.00" from="-l3" to="-l4" type="dist0" departLane="best" departSpeed="max" departPos="random"/>
    <trip id="a9a217" depart="3308.50" from="-l3" to="l2" type="dist0" departLane="best" departSpeed="max" departPos="random"/>
    <trip id="a9a218" depart="3309.00" from="l4" to="-l1" type="dist0" departLane="best" departSpeed="max" departPos="random"/>
    <trip id="a9a219" depart="3309.50" from="l4" to="l3" type="dist0" departLane="best" departSpeed="max" departPos="random"/>
    <trip id="a9a220" depart="3310.00" from="l4" to="-l4" type="dist0" departLane="best" departSpeed="max" departPos="random"/>
    <trip id="a9a221" depart="3310.50" from="l4" to="-l4" type="dist0" departLane="best" departSpeed="max" departPos="random"/>
    <trip id="a9a222" depart="3311.00" from="l1" to="l2" type="dist0" departLane="best" departSpeed="max" departPos="random"/>
    <trip id="a9a223" depart="3311.50" from="-l2" to="-l4" type="dist0" departLane="best" departSpeed="max" departPos="random"/>
    <trip id="a9a224" depart="3312.00" from="l4" to="-l1" type="dist0" departLane="best" departSpeed="max" departPos="random"/>
    <trip id="a9a225" depart="3312.50" from="l4" to="l3" type="dist0" departLane="best" departSpeed="max" departPos="random"/>
    <trip id="a9a226" depart="3313.00" from="-l2" to="l2" type="dist0" departLane="best" departSpeed="max" departPos="random"/>
    <trip id="a9a227" depart="3313.50" from="-l3" to="-l4" type="dist0" departLane="best" departSpeed="max" departPos="random"/>
    <trip id="a9a228" depart="3314.00" from="-l3" to="-l4" type="dist0" departLane="best" departSpeed="max" departPos="random"/>